FoamFile
{
    version     2.0;
    format      ascii;
    class       dictionary;
    location    ".";
    object      turbulenceProperties;
}


simulationType RASModel;
