/*---------------------------------------------------------------------------*\
| =========                 |                                                 |
| \\      /  F ield         | OpenFOAM: The Open Source CFD Toolbox           |
|  \\    /   O peration     | Version:  1.0                                   |
|   \\  /    A nd           | Web:      http://www.openfoam.org               |
|    \\/     M anipulation  |                                                 |
\*---------------------------------------------------------------------------*/

FoamFile
{
    version         2.0;
    format          ascii;

    root            "";
    case            "";
    instance        "";
    local           "";

    class           dictionary;
    object          sampleDict;
}

// * * * * * * * * * * * * * * * * * * * * * * * * * * * * * * * * * * * * * //


interpolationScheme cellPoint;

writeFormat    raw;
 

sampleSets      
(

    uniform 
    {
        name            axial;
        axis            x;
        start           (0 0 0);
        end             (0.3 0 0);
        nPoints         128;
   }

    uniform 
    {
        name            radial_3cm;
        axis            y;
        start           (0.03 -0.1 0);
        end             (0.03 0.1 0);
        nPoints         128;
   }

    uniform 
    {
        name            radial_5cm;
        axis            y;
        start           (0.05 -0.1 0);
        end             (0.05 0.1 0);
        nPoints         128;
   }
    uniform 
    {
        name            radial_10cm;
        axis            y;
        start           (0.1 -0.1 0);
        end             (0.1 0.1 0);
        nPoints         128;
   }
);

fields
(
  Umean
  U
);
// ************************************************************************* //
