/*---------------------------------------------------------------------------*\
| =========                 |                                                 |
| \\      /  F ield         | OpenFOAM: The Open Source CFD Toolbox           |
|  \\    /   O peration     | Version:  1.4                                   |
|   \\  /    A nd           | Web:      http://www.openfoam.org               |
|    \\/     M anipulation  |                                                 |
\*---------------------------------------------------------------------------*/

FoamFile
{
    version 2.0;
    format ascii;

    root "..";
    case "bunsenChen";
    instance "constant";
    local "";

    class dictionary;
    object LDMtable;
}

// * * * * * * * * * * * * * * * * * * * * * * * * * * * * * * * * * * * * * //

constantNormValue_z 0.05997;
normValues_CO2 "slice" "z" "YCO2" (         0          1e-3
 0.0204082 0.00332707
 0.0408163 0.00665413
 0.0612245  0.0099812
 0.0816327  0.0133083
  0.102041  0.0166353
  0.122449  0.0199624
  0.142857  0.0232895
  0.163265  0.0266165
  0.183673  0.0299436
  0.204082  0.0332707
   0.22449  0.0365977
  0.244898  0.0399248
  0.265306   0.043274
  0.285714  0.0467126
  0.306122  0.0500413
  0.326531  0.0533853
  0.346939  0.0566809
  0.367347  0.0600239
  0.387755  0.0633285
  0.408163  0.0666438
  0.428571  0.0699287
   0.44898  0.0733421
  0.469388  0.0765503
  0.489796  0.0799171
  0.510204   0.083266
  0.530612  0.0865652
   0.55102  0.0898878
  0.571429  0.0932108
  0.591837  0.0965325
  0.612245  0.0998783
  0.632653   0.103282
  0.653061   0.106493
  0.673469   0.109687
  0.693878   0.112968
  0.714286   0.116206
  0.734694   0.119383
  0.755102   0.122446
   0.77551   0.125361
  0.795918   0.128167
  0.816327   0.130713
  0.836735   0.132986
  0.857143   0.134908
  0.877551   0.136354
  0.897959   0.137042
  0.918367   0.136602
  0.938776   0.135346
  0.959184   0.132732
  0.979592   0.128716
         1   0.124259
);
tableData (
2 50 50 
0 0 
0.0204082 0.0204082 
10(0 0 -0 300 1.15665 0.0265126 1.86337e-05 1010.07 -0 -0)
10(0 -1.53101e-17 0 300 1.15553 0.0265306 1.86199e-05 1011.56 1.55043e-07 0)
10(0 -3.06202e-17 0 300 1.15441 0.0265486 1.86061e-05 1013.05 3.10087e-07 0)
10(0 -4.59303e-17 0 300 1.1533 0.0265666 1.85923e-05 1014.54 4.6513e-07 0)
10(0 -6.12405e-17 0 300 1.15218 0.0265847 1.85785e-05 1016.04 6.20173e-07 0)
10(0 -7.65506e-17 0 300 1.15106 0.0266027 1.85647e-05 1017.53 7.75216e-07 0)
10(0 -9.18607e-17 0 300 1.14994 0.0266207 1.85509e-05 1019.02 9.3026e-07 0)
10(0 -1.07171e-16 0 300 1.14883 0.0266387 1.85371e-05 1020.51 1.0853e-06 0)
10(0 -1.22481e-16 0 300 1.14771 0.0266568 1.85233e-05 1022 1.24035e-06 0)
10(0 -1.37791e-16 0 300 1.14659 0.0266748 1.85095e-05 1023.5 1.39539e-06 0)
10(0 -1.53101e-16 0 300 1.14548 0.0266928 1.84957e-05 1024.99 1.55043e-06 0)
10(0 -1.68411e-16 0 300 1.14436 0.0267108 1.84819e-05 1026.48 1.70548e-06 0)
10(0 -1.83721e-16 0 300 1.14324 0.0267288 1.84681e-05 1027.97 1.86052e-06 0)
10(0 2.90876e-16 0 300 1.14214 0.0267467 1.84544e-05 1029.46 2.73995e-06 0)
10(0 -3.33597e-15 0 300 1.14104 0.0267646 1.84408e-05 1030.96 2.93624e-06 0)
10(0 1.70543e-14 0 300 1.13994 0.0267824 1.84271e-05 1032.45 3.17792e-06 0)
10(0 7.29241e-15 0 300 1.13884 0.0268002 1.84135e-05 1033.94 4.68473e-06 0)
10(0 -4.06504e-14 0 300 1.13775 0.0268179 1.83999e-05 1035.43 2.85444e-06 0)
10(0 -7.241e-14 0 300 1.13665 0.0268357 1.83863e-05 1036.92 2.73736e-06 0)
10(0 -1.45451e-14 0 300 1.13556 0.0268533 1.83728e-05 1038.42 7.35967e-07 0)
10(0 -2.65356e-13 0 300 1.13448 0.026871 1.83592e-05 1039.91 1.92234e-06 0)
10(0 8.14603e-13 0 300 1.13339 0.0268886 1.83457e-05 1041.4 2.59082e-07 0)
10(0 2.42307e-14 0 300 1.13231 0.0269062 1.83322e-05 1042.89 2.77391e-08 0)
10(0 -6.62774e-13 0 300 1.13122 0.0269237 1.83187e-05 1044.38 9.47057e-09 0)
10(0 1.24208e-13 0 300 1.13014 0.0269413 1.83052e-05 1045.87 4.713e-10 0)
10(0 -4.98945e-14 0 300 1.12907 0.0269588 1.82918e-05 1047.37 2.49566e-11 0)
10(0 3.53609e-14 0 300 1.12799 0.0269764 1.82784e-05 1048.86 3.08953e-12 0)
10(0 7.79869e-13 0 300 1.12692 0.0269939 1.82649e-05 1050.35 2.42882e-13 0)
10(0 -2.81825e-13 0 300 1.12585 0.0270113 1.82515e-05 1051.84 3.36754e-14 0)
10(0 2.30668e-13 0 300 1.12478 0.0270288 1.82382e-05 1053.33 3.54581e-15 0)
10(0 -2.13312e-13 0 300 1.12371 0.0270462 1.82248e-05 1054.83 4.25522e-16 0)
10(0 1.61583e-12 0 300 1.12264 0.0270636 1.82115e-05 1056.32 1.07443e-16 0)
10(0 4.83832e-13 0 300 1.12158 0.027081 1.81981e-05 1057.81 2.50657e-17 0)
10(0 1.133e-13 0 300 1.12052 0.0270983 1.81848e-05 1059.3 5.84394e-18 0)
10(0 8.10076e-13 0 300 1.11946 0.0271156 1.81715e-05 1060.79 2.78253e-17 0)
10(0 -9.85501e-13 0 300 1.1184 0.0271329 1.81583e-05 1062.28 -3.28057e-17 -6.24473e-05)
10(0 5.94719e-13 0 300 1.11734 0.0271502 1.8145e-05 1063.78 1.91355e-17 0)
10(0 -2.8002e-12 0 300 1.11629 0.0271674 1.81318e-05 1065.27 -8.8502e-17 -5.61966e-05)
10(0 1.32408e-12 0 300 1.11524 0.0271847 1.81186e-05 1066.76 3.39908e-17 0)
10(0 -6.68931e-13 0 300 1.11419 0.0272019 1.81054e-05 1068.25 -1.64873e-17 -5.12559e-05)
10(0 1.2616e-13 0 300 1.11314 0.027219 1.80922e-05 1069.74 3.04571e-18 0)
10(0 6.56543e-13 0 300 1.1121 0.0272362 1.8079e-05 1071.24 1.2295e-17 0)
10(0 -2.42688e-13 0 300 1.11105 0.0272533 1.80659e-05 1072.73 -4.30943e-18 -4.63827e-05)
10(0 5.72425e-14 0 300 1.11001 0.0272704 1.80528e-05 1074.22 7.83616e-19 0)
10(0 -5.47854e-14 0 300 1.10897 0.0272875 1.80397e-05 1075.71 -7.0301e-19 -4.91521e-05)
10(0 -1.12245e-13 0 300 1.10793 0.0273046 1.80266e-05 1077.2 2.65016e-17 0)
10(0 -3.06433e-12 0 300 1.1069 0.0273216 1.80135e-05 1078.7 -4.34039e-17 -4.14021e-05)
10(0 -4.69146e-13 0 300 1.10586 0.0273386 1.80004e-05 1080.19 -5.95398e-18 -4.13938e-05)
10(0 -4.5248e-13 0 300 1.10483 0.0273556 1.79874e-05 1081.68 -5.15287e-18 -4.12582e-05)
10(0 -3.79717e-13 0 300 1.1038 0.0273726 1.79744e-05 1083.17 -4.62338e-18 -4.29506e-05)
10(0 -0 -0 300 1.15665 0.0265126 1.86337e-05 1010.07 -0 -0)
10(0 7.85387e-16 6.78993e-05 303.086 1.14503 0.0267275 1.87578e-05 1012.11 0.000254796 0.0671295)
10(0 1.57077e-15 0.000135799 306.172 1.13342 0.0269425 1.8882e-05 1014.15 0.000509591 0.134259)
10(0 2.35616e-15 0.000203698 309.257 1.12181 0.0271575 1.90061e-05 1016.19 0.000764387 0.201388)
10(0 3.14155e-15 0.000271597 312.343 1.1102 0.0273724 1.91303e-05 1018.24 0.00101918 0.268518)
10(0 3.92694e-15 0.000339497 315.429 1.09858 0.0275874 1.92544e-05 1020.28 0.00127398 0.335647)
10(0 4.71232e-15 0.000407396 318.515 1.08697 0.0278024 1.93786e-05 1022.32 0.00152877 0.402777)
10(0 5.49771e-15 0.000475295 321.6 1.07536 0.0280173 1.95027e-05 1024.37 0.00178357 0.469906)
10(0 6.2831e-15 0.000543195 324.686 1.06374 0.0282323 1.96269e-05 1026.41 0.00203836 0.537036)
10(0 7.06849e-15 0.000611094 327.772 1.05213 0.0284473 1.9751e-05 1028.45 0.00229316 0.604165)
10(0 7.85387e-15 0.000678993 330.858 1.04052 0.0286622 1.98752e-05 1030.49 0.00254796 0.671295)
10(0 8.63926e-15 0.000746893 333.943 1.02891 0.0288772 1.99993e-05 1032.54 0.00280275 0.738424)
10(0 9.42465e-15 0.000814792 337.029 1.01729 0.0290922 2.01235e-05 1034.58 0.00305755 0.805554)
10(0 7.64668e-15 0.000883143 339.765 1.00785 0.0292908 2.02276e-05 1036.74 0.00860071 0.442751)
10(0 1.12518e-13 0.000953318 342.709 0.998388 0.0295047 2.03384e-05 1038.97 0.00281618 0.257621)
10(0 2.24542e-13 0.00102125 345.303 0.990191 0.0296975 2.04333e-05 1041.17 0.00569751 0.15899)
10(0 4.92335e-13 0.0010895 347.842 0.982064 0.0298876 2.0526e-05 1043.37 0.0101503 0.0983184)
10(0 1.26509e-12 0.00115675 351.905 0.96933 0.0301785 2.06852e-05 1045.9 0.0377598 0.0712807)
10(0 5.63736e-12 0.00122498 354.529 0.960648 0.0303763 2.07823e-05 1048.17 0.021809 0.0503257)
10(0 4.66751e-11 0.00129242 357.544 0.953397 0.0306047 2.08874e-05 1050.61 0.0468891 0.0418977)
10(0 4.10464e-10 0.00136008 359.992 0.94604 0.030795 2.09735e-05 1052.92 0.0529771 0.0281149)
10(0 2.37412e-09 0.00142712 364.417 0.932144 0.0311176 2.11478e-05 1055.68 0.0363278 0.0260353)
10(0 1.79841e-08 0.00149678 367.902 0.923108 0.0313845 2.12737e-05 1058.33 0.0672769 0.0238735)
10(0 6.64132e-08 0.00156225 374.618 0.904362 0.0318697 2.15393e-05 1061.79 0.339333 0.0245169)
10(0 3.12668e-07 0.00163096 379.199 0.892327 0.0322176 2.17109e-05 1064.82 0.163138 0.0249659)
10(0 1.18754e-06 0.00169931 384.977 0.877788 0.0326512 2.19303e-05 1068.22 0.147374 0.0252853)
10(0 3.51971e-06 0.00176664 390.087 0.864989 0.033045 2.21212e-05 1071.53 0.0244019 0.025501)
10(0 9.83234e-06 0.00183444 396.129 0.85046 0.0335071 2.23484e-05 1075.15 0.459665 0.0256605)
10(0 2.67072e-05 0.00190226 402.538 0.836585 0.0340019 2.25838e-05 1079.01 0.039326 0.025782)
10(0 5.90496e-05 0.00197005 408.508 0.822763 0.0344708 2.28055e-05 1082.77 0.029431 0.0258777)
10(0 0.000125418 0.00203833 414.411 0.809753 0.0349412 2.30212e-05 1086.63 0.140691 0.0259522)
10(0 0.000269292 0.0021078 420.936 0.796232 0.0354625 2.32583e-05 1090.76 0.0298703 0.0260178)
10(0 0.000477965 0.00217333 428.14 0.781393 0.0360358 2.35215e-05 1095.18 0.0306754 0.0260678)
10(0 0.000902188 0.00223851 436.791 0.764892 0.0367221 2.38355e-05 1100.22 0.049633 0.0261152)
10(0 0.00153909 0.00230547 443.499 0.751942 0.0372779 2.40746e-05 1104.72 0.972794 0.026155)
10(0 0.00252987 0.00237155 450.49 0.739181 0.037861 2.43212e-05 1109.42 0.0215554 0.0261895)
10(0 0.00409916 0.00243639 456.865 0.728367 0.0384079 2.45401e-05 1114.05 0.0418041 0.0277786)
10(0 0.00603488 0.0024989 464.721 0.714421 0.039068 2.48178e-05 1119.23 0.0241973 0.0278905)
10(0 0.00927099 0.00255839 472.878 0.701069 0.0397604 2.51009e-05 1124.68 0.0199675 0.0349461)
10(0 0.0132671 0.00261565 480.211 0.689299 0.040401 2.5352e-05 1129.94 0.0354003 0.0361217)
10(0 0.0183855 0.00266761 488.75 0.675807 0.041139 2.5647e-05 1135.75 0.0164559 0.0373666)
10(0 0.0237169 0.002714 494.44 0.666999 0.0416794 2.58339e-05 1140.67 0.0181012 0.0482869)
10(0 0.0303355 0.00275322 500.614 0.65752 0.0422619 2.60384e-05 1145.85 0.00944649 0.0507254)
10(0 0.039111 0.00278273 509.351 0.645011 0.0430437 2.63337e-05 1152.08 0.00502619 0.0663949)
10(0 0.0463162 0.00279678 514.528 0.637467 0.0435675 2.64992e-05 1157.06 0.00576332 0.0706796)
10(0 0.0533337 0.0027878 518.831 0.631162 0.0440395 2.66328e-05 1161.81 0.0380779 0.015332)
10(0 0.0579035 0.00276216 521.636 0.626521 0.044408 2.67147e-05 1166.03 0.00552072 0.0643804)
10(0 0.05885 0.00270882 523.902 0.622789 0.0447347 2.67769e-05 1170.04 0.0165525 0.0720327)
10(0 0.0563771 0.00262686 523.526 0.622121 0.0448812 2.67463e-05 1173.13 0.0226188 0.0804606)
10(0 0.0522324 0.0025359 521.004 0.624201 0.0448463 2.66405e-05 1175.17 0.00591289 0.0753717)
10(0 -0 -0 300 1.15665 0.0265126 1.86337e-05 1010.07 -0 -0)
10(0 4.38518e-16 0.000135799 305.342 1.13873 0.0268732 1.88541e-05 1012.53 0.00010568 0.0714538)
10(0 8.77036e-16 0.000271597 310.685 1.12081 0.0272338 1.90745e-05 1015 0.00021136 0.142908)
10(0 1.31555e-15 0.000407396 316.027 1.10289 0.0275944 1.9295e-05 1017.46 0.00031704 0.214362)
10(0 1.75407e-15 0.000543195 321.369 1.08498 0.027955 1.95154e-05 1019.93 0.000422719 0.285815)
10(0 2.19259e-15 0.000678993 326.711 1.06706 0.0283156 1.97358e-05 1022.39 0.000528399 0.357269)
10(0 2.63111e-15 0.000814792 332.054 1.04914 0.0286762 1.99563e-05 1024.86 0.000634079 0.428723)
10(0 3.06963e-15 0.00095059 337.396 1.03122 0.0290368 2.01767e-05 1027.32 0.000739759 0.500177)
10(0 3.50814e-15 0.00108639 342.738 1.01331 0.0293974 2.03971e-05 1029.79 0.000845439 0.571631)
10(0 3.94666e-15 0.00122219 348.081 0.995387 0.029758 2.06176e-05 1032.25 0.000951119 0.643085)
10(0 4.38518e-15 0.00135799 353.423 0.97747 0.0301186 2.0838e-05 1034.72 0.0010568 0.714538)
10(0 4.8237e-15 0.00149379 358.765 0.959552 0.0304792 2.10584e-05 1037.19 0.00116248 0.785992)
10(0 5.26221e-15 0.00162958 364.108 0.941634 0.0308398 2.12789e-05 1039.65 0.00126816 0.857446)
10(0 1.33782e-14 0.00176629 368.743 0.929032 0.0311673 2.14552e-05 1042.33 0.00269163 0.469159)
10(0 1.16848e-13 0.00190664 373.444 0.916832 0.0315015 2.16322e-05 1045.08 0.00632216 0.270929)
10(0 3.01983e-13 0.0020425 378.328 0.904302 0.0318498 2.1816e-05 1047.91 0.0129613 0.166852)
10(0 1.37076e-12 0.00217899 382.885 0.892788 0.0321787 2.19851e-05 1050.73 0.0227345 0.103113)
10(0 5.67867e-12 0.00231351 390.6 0.872633 0.0327177 2.2289e-05 1054.24 0.141038 0.0745108)
10(0 4.26383e-11 0.00244996 395.073 0.86171 0.0330458 2.24525e-05 1057.14 0.0198536 0.0524383)
10(0 3.56317e-10 0.00258484 400.817 0.848395 0.0334614 2.26656e-05 1060.41 0.0289732 0.0434902)
10(0 2.84255e-09 0.00272016 405.457 0.838393 0.0338072 2.28302e-05 1063.49 0.0748669 0.0292352)
10(0 1.99863e-08 0.00285423 411.823 0.824435 0.0342721 2.30647e-05 1067.06 0.186695 0.026801)
10(0 1.30884e-07 0.00299356 418.464 0.811388 0.0347616 2.33043e-05 1070.78 0.207124 0.0244343)
10(0 6.23795e-07 0.0031245 428.364 0.790347 0.0354758 2.36768e-05 1075.44 0.176729 0.0249507)
10(0 2.63036e-06 0.00326192 435.402 0.775901 0.0360032 2.39329e-05 1079.44 0.0459305 0.0252966)
10(0 9.66063e-06 0.00339861 445.317 0.757607 0.0367336 2.42943e-05 1084.36 0.032316 0.0255508)
10(0 2.95084e-05 0.00353327 452.884 0.74412 0.0373115 2.45612e-05 1088.78 0.213858 0.0257165)
10(0 8.30875e-05 0.00366889 463.49 0.726385 0.0381041 2.49397e-05 1094.18 0.0548753 0.0258431)
10(0 0.00020797 0.00380452 473.863 0.709093 0.0388907 2.53079e-05 1099.67 0.0369482 0.0259423)
10(0 0.000484063 0.0039401 483.137 0.694713 0.0396084 2.56292e-05 1104.96 0.0791506 0.026015)
10(0 0.00101527 0.00407667 493.241 0.679603 0.0403918 2.59781e-05 1110.65 0.107814 0.0260742)
10(0 0.00203269 0.00421559 504.26 0.663216 0.0412494 2.63603e-05 1116.74 0.0288511 0.026127)
10(0 0.00383884 0.00434665 515.943 0.647301 0.0421615 2.67579e-05 1123.26 0.0555022 0.0261682)
10(0 0.00705545 0.00447702 528.461 0.630877 0.0431457 2.71817e-05 1130.25 0.111093 0.0262062)
10(0 0.0120717 0.00461094 539.337 0.616961 0.0440235 2.75444e-05 1136.81 0.0256432 0.0262389)
10(0 0.0198019 0.0047431 550.648 0.603187 0.0449422 2.79183e-05 1143.67 0.238198 0.0262679)
10(0 0.0313818 0.00487278 560.825 0.591237 0.0457909 2.82489e-05 1150.29 0.0209028 0.0278523)
10(0 0.0480891 0.0049978 572.971 0.577767 0.0467899 2.86436e-05 1157.76 0.0251 0.0279599)
10(0 0.0732725 0.00511678 585.354 0.564471 0.04782 2.9043e-05 1165.49 0.0150141 0.0350118)
10(0 0.105073 0.00523131 596.659 0.552731 0.0487835 2.94027e-05 1172.96 0.0133756 0.0361844)
10(0 0.147898 0.00533522 609.895 0.539785 0.0498989 2.98228e-05 1181.33 0.0529467 0.0374269)
10(0 0.189658 0.005428 619.971 0.529993 0.0508003 3.01349e-05 1188.64 0.0149646 0.0483463)
10(0 0.241085 0.00550645 629.491 0.521085 0.051671 3.04256e-05 1195.84 0.0171632 0.050783)
10(0 0.311099 0.00556547 641.489 0.510619 0.0527356 3.07941e-05 1204.14 0.021052 0.0664505)
10(0 0.358897 0.00559355 650.797 0.502125 0.0536145 3.10765e-05 1211.49 0.0168683 0.070735)
10(0 0.404615 0.00557559 657.205 0.496122 0.054299 3.1263e-05 1217.81 0.0470678 0.0153868)
10(0 0.431659 0.00552433 661.157 0.492558 0.0548089 3.13669e-05 1223.18 0.0570059 0.0644344)
10(0 0.435936 0.00541763 664.089 0.489674 0.055247 3.14391e-05 1228.19 0.0408623 0.0720866)
10(0 0.408311 0.00525371 662.961 0.489101 0.0554079 3.13864e-05 1231.67 0.0296858 0.0805148)
10(0 0.369701 0.0050718 659.028 0.491417 0.0553337 3.12398e-05 1233.77 0.0848906 0.0754259)
10(0 -0 -0 300 1.15665 0.0265126 1.86337e-05 1010.07 -0 -0)
10(0 7.11969e-16 0.000203698 307.364 1.13381 0.0270043 1.89377e-05 1012.93 0.000137149 0.0739579)
10(0 1.42394e-15 0.000407396 314.727 1.11097 0.0274959 1.92417e-05 1015.79 0.000274298 0.147916)
10(0 2.13591e-15 0.000611094 322.091 1.08813 0.0279876 1.95456e-05 1018.64 0.000411446 0.221874)
10(0 2.84787e-15 0.000814792 329.454 1.06529 0.0284793 1.98496e-05 1021.5 0.000548595 0.295832)
10(0 3.55984e-15 0.00101849 336.818 1.04244 0.028971 2.01536e-05 1024.36 0.000685744 0.36979)
10(0 4.27181e-15 0.00122219 344.181 1.0196 0.0294626 2.04576e-05 1027.22 0.000822893 0.443748)
10(0 4.98378e-15 0.00142589 351.545 0.996763 0.0299543 2.07616e-05 1030.08 0.000960041 0.517706)
10(0 5.69575e-15 0.00162958 358.908 0.973923 0.030446 2.10655e-05 1032.94 0.00109719 0.591664)
10(0 6.40772e-15 0.00183328 366.272 0.951082 0.0309377 2.13695e-05 1035.8 0.00123434 0.665621)
10(0 7.11969e-15 0.00203698 373.635 0.928242 0.0314293 2.16735e-05 1038.66 0.00137149 0.739579)
10(0 7.83165e-15 0.00224068 380.999 0.905401 0.031921 2.19775e-05 1041.51 0.00150864 0.813537)
10(0 8.54362e-15 0.00244438 388.362 0.882561 0.0324127 2.22815e-05 1044.37 0.00164579 0.887495)
10(0 1.80692e-14 0.00264943 394.919 0.867158 0.0328701 2.2529e-05 1047.6 0.00340672 0.485088)
10(0 1.51273e-13 0.00285996 401.482 0.852739 0.0333311 2.27726e-05 1050.9 0.00720593 0.279389)
10(0 8.8917e-13 0.00306375 408.442 0.837891 0.0338213 2.30299e-05 1054.38 0.0137046 0.171779)
10(0 6.33503e-12 0.00326849 414.892 0.824167 0.0342807 2.32661e-05 1057.81 0.0238083 0.106125)
10(0 3.0865e-11 0.00347026 424.511 0.802593 0.0349532 2.36347e-05 1061.97 0.0182469 0.0763742)
10(0 2.29778e-10 0.00367493 430.525 0.791011 0.0353906 2.38475e-05 1065.48 0.0350376 0.0536573)
10(0 1.7253e-09 0.00387726 438.703 0.775123 0.0359756 2.41456e-05 1069.57 0.0421726 0.0443486)
10(0 1.29026e-08 0.00408023 445.271 0.763184 0.0364576 2.43763e-05 1073.38 0.1435 0.0298597)
10(0 9.01428e-08 0.00428135 454.32 0.74771 0.0371109 2.46979e-05 1077.93 0.201709 0.0272584)
10(0 5.27202e-07 0.00449033 463.568 0.730152 0.037784 2.50353e-05 1082.55 0.0563907 0.024786)
10(0 2.77547e-06 0.00468675 475.195 0.711701 0.0386256 2.5446e-05 1088.11 0.0882886 0.0252067)
10(0 1.19504e-05 0.00489288 484.714 0.697425 0.0393312 2.5774e-05 1093.18 0.091055 0.0254919)
10(0 4.09524e-05 0.00509792 497.45 0.677694 0.0402647 2.62241e-05 1099.28 0.0472101 0.0257085)
10(0 0.000125358 0.00529991 507.943 0.663395 0.0410531 2.65792e-05 1104.95 0.0946081 0.0258487)
10(0 0.000322732 0.00550333 522.808 0.642787 0.0421504 2.70952e-05 1112.04 0.0360881 0.0259588)
10(0 0.000839887 0.00570678 535.35 0.627112 0.043098 2.75151e-05 1118.68 0.0818436 0.0260395)
10(0 0.00191558 0.00591015 548.293 0.61152 0.044082 2.79462e-05 1125.58 0.112549 0.0261013)
10(0 0.00386816 0.006115 562.236 0.59483 0.0451464 2.84115e-05 1132.96 0.439118 0.0261526)
10(0 0.00807829 0.00632339 575.518 0.580368 0.0461753 2.8844e-05 1140.33 0.0453028 0.0261952)
10(0 0.0151238 0.00651998 590.774 0.564225 0.0473525 2.93407e-05 1148.57 0.0801081 0.0262311)
10(0 0.0279254 0.00671553 606.386 0.548767 0.0485686 2.98421e-05 1157.15 0.0527414 0.0262636)
10(0 0.047977 0.00691641 620.597 0.535204 0.0496978 3.02924e-05 1165.38 0.0242053 0.026292)
10(0 0.079354 0.00711465 635.446 0.521855 0.0508833 3.0758e-05 1174.01 0.0341136 0.0263176)
10(0 0.123908 0.00730916 649.053 0.509952 0.0519948 3.11795e-05 1182.34 0.248632 0.0278994)
10(0 0.187552 0.00749669 665.107 0.496789 0.0532909 3.1675e-05 1191.75 0.129589 0.0280048)
10(0 0.281611 0.00767516 680.532 0.484804 0.0545577 3.2144e-05 1201.07 0.0486949 0.0350543)
10(0 0.390214 0.00784696 696.109 0.47286 0.05585 3.26169e-05 1210.59 0.0375036 0.0362256)
10(0 0.533817 0.00800284 713.331 0.460715 0.0572741 3.31336e-05 1220.91 0.144035 0.0374669)
10(0 0.670334 0.008142 725.826 0.451715 0.0583808 3.35004e-05 1229.58 0.0581341 0.0483852)
10(0 0.825126 0.00825967 738.205 0.443325 0.059489 3.38593e-05 1238.26 0.0385654 0.0508212)
10(0 1.00728 0.0083482 753.896 0.433035 0.0608531 3.432e-05 1248.36 0.0292708 0.0664882)
10(0 1.14993 0.00839033 765.601 0.425506 0.061943 3.46541e-05 1257.02 0.0681682 0.0707722)
10(0 1.26959 0.00836339 772.828 0.420664 0.0627302 3.48499e-05 1264.03 0.577794 0.0154232)
10(0 1.32175 0.00828649 778.568 0.416777 0.0634185 3.50005e-05 1270.52 0.0179126 0.0644708)
10(0 1.30643 0.00812645 781.435 0.414436 0.0639037 3.50645e-05 1275.96 0.0351143 0.0721228)
10(0 1.22875 0.00788057 779.005 0.414936 0.0640242 3.49686e-05 1279.41 0.0325093 0.0805507)
10(0 1.1013 0.00760769 773.986 0.416776 0.0639308 3.47972e-05 1281.65 0.215354 0.0754619)
10(0 -0 -0 300 1.15665 0.0265126 1.86337e-05 1010.07 -0 -0)
10(0 7.75655e-16 0.000271597 309.243 1.12979 0.0271264 1.90131e-05 1013.31 0.00043883 0.0757149)
10(0 1.55131e-15 0.000543195 318.486 1.10293 0.0277403 1.93925e-05 1016.55 0.000877659 0.15143)
10(0 2.32696e-15 0.000814792 327.728 1.07607 0.0283542 1.9772e-05 1019.78 0.00131649 0.227145)
10(0 3.10262e-15 0.00108639 336.971 1.04922 0.028968 2.01514e-05 1023.02 0.00175532 0.30286)
10(0 3.87827e-15 0.00135799 346.214 1.02236 0.0295819 2.05308e-05 1026.26 0.00219415 0.378575)
10(0 4.65393e-15 0.00162958 355.457 0.995501 0.0301957 2.09103e-05 1029.5 0.00263298 0.45429)
10(0 5.42958e-15 0.00190118 364.7 0.968643 0.0308096 2.12897e-05 1032.74 0.00307181 0.530004)
10(0 6.20524e-15 0.00217278 373.942 0.941786 0.0314234 2.16691e-05 1035.98 0.00351064 0.605719)
10(0 6.98089e-15 0.00244438 383.185 0.914928 0.0320373 2.20486e-05 1039.22 0.00394947 0.681434)
10(0 7.75655e-15 0.00271597 392.428 0.88807 0.0326512 2.2428e-05 1042.46 0.0043883 0.757149)
10(0 8.5322e-15 0.00298757 401.671 0.861213 0.033265 2.28074e-05 1045.69 0.00482713 0.832864)
10(0 9.30785e-15 0.00325917 410.914 0.834355 0.0338789 2.31868e-05 1048.93 0.00526595 0.908579)
10(0 2.78052e-14 0.00353257 419.3 0.816989 0.03446 2.34987e-05 1052.7 0.0105102 0.496269)
10(0 2.64076e-13 0.00381327 427.905 0.799688 0.0350593 2.38173e-05 1056.59 0.025003 0.285601)
10(0 2.01844e-12 0.004085 437.049 0.782076 0.035698 2.4153e-05 1060.73 0.0523876 0.175499)
10(0 1.5459e-11 0.00435798 445.294 0.766984 0.0362812 2.44493e-05 1064.78 0.086092 0.108393)
10(0 1.1348e-10 0.00462701 455.888 0.746933 0.0370239 2.4839e-05 1069.45 0.0219029 0.0777197)
10(0 8.40521e-10 0.00489991 463.51 0.734458 0.0375733 2.51031e-05 1073.58 0.039745 0.0545622)
10(0 5.04919e-09 0.00516967 474.167 0.716497 0.0383301 2.54849e-05 1078.53 0.374823 0.0449909)
10(0 4.63022e-08 0.00544031 482.13 0.705148 0.0389105 2.57522e-05 1082.99 0.121635 0.0303112)
10(0 2.78506e-07 0.00570847 493.604 0.686471 0.0397337 2.61603e-05 1088.4 0.212308 0.0276054)
10(0 1.7954e-06 0.00598711 504.385 0.671001 0.0405167 2.65311e-05 1093.81 0.0755832 0.0250265)
10(0 8.33304e-06 0.006249 518.094 0.651821 0.0415063 2.70048e-05 1100.25 5.02595 0.0253941)
10(0 3.67563e-05 0.00652384 530.501 0.637005 0.0424133 2.74173e-05 1106.52 0.11848 0.0256408)
10(0 0.000126112 0.00679722 545.102 0.618294 0.0434811 2.79138e-05 1113.54 0.133177 0.0258254)
10(0 0.000364824 0.00706655 558.77 0.60248 0.0444937 2.83661e-05 1120.51 0.214586 0.0259493)
10(0 0.000977668 0.00733778 576.071 0.582909 0.0457648 2.89427e-05 1128.8 0.047076 0.0260432)
10(0 0.00241589 0.00760904 591.439 0.566804 0.0469148 2.94425e-05 1136.7 0.0551253 0.026113)
10(0 0.0055313 0.0078802 607.093 0.551309 0.0480938 2.9946e-05 1144.87 0.0385459 0.0261661)
10(0 0.0116695 0.00815333 623.75 0.535784 0.0493525 3.04765e-05 1153.58 0.0777549 0.02621)
10(0 0.0235143 0.00843118 639.518 0.521549 0.0505636 3.09731e-05 1162.15 0.027979 0.0262465)
10(0 0.0444102 0.00869331 657.593 0.506255 0.0519452 3.15381e-05 1171.75 0.0227622 0.0262781)
10(0 0.0812182 0.00895404 676.229 0.491495 0.0533807 3.21134e-05 1181.75 0.0481274 0.0263069)
10(0 0.13792 0.00922188 693.457 0.478427 0.054731 3.26383e-05 1191.38 0.0734224 0.0263323)
10(0 0.226247 0.0094862 711.583 0.465729 0.0561553 3.3183e-05 1201.48 0.0864688 0.0263556)
10(0 0.336202 0.00974555 729.2 0.453312 0.0575624 3.37121e-05 1211.57 1.13854 0.0279359)
10(0 0.498797 0.00999559 747.572 0.44136 0.0590355 3.42553e-05 1222.07 0.0852229 0.0280395)
10(0 0.717989 0.0102336 766.466 0.429763 0.0605611 3.48085e-05 1232.84 0.0782621 0.0350876)
10(0 0.968063 0.0104626 784.702 0.418665 0.0620592 3.534e-05 1243.54 0.0253471 0.0362577)
10(0 1.27978 0.0106704 804.901 0.407321 0.063712 3.59226e-05 1255.06 0.0289561 0.0374979)
10(0 1.58063 0.010856 819.826 0.399179 0.0650126 3.63411e-05 1264.7 0.0445117 0.0484156)
10(0 1.89406 0.0110129 834.774 0.391122 0.0663299 3.67596e-05 1274.42 0.0271084 0.0508511)
10(0 2.27712 0.0111309 852.017 0.382368 0.0678278 3.7242e-05 1285.05 0.0261585 0.066517)
10(0 2.57021 0.0111871 865.957 0.375419 0.0691071 3.76239e-05 1294.53 0.0218552 0.0708008)
10(0 2.79007 0.0111512 874.647 0.370862 0.0700361 3.78518e-05 1302.21 0.489418 0.0154515)
10(0 2.88179 0.0110487 880.826 0.367485 0.0707968 3.80062e-05 1309.04 0.016354 0.0644988)
10(0 2.8185 0.0108353 884.073 0.365375 0.0713536 3.8076e-05 1314.89 0.0142736 0.0721507)
10(0 2.63071 0.0105074 881.047 0.36593 0.0714824 3.79641e-05 1318.56 0.052629 0.0805786)
10(0 2.35447 0.0101436 874.627 0.367942 0.0713395 3.77556e-05 1320.8 0.0151749 0.0754899)
10(0 -0 -0 300 1.15665 0.0265126 1.86337e-05 1010.07 -0 -0)
10(0 1.16968e-15 0.000339497 311.017 1.1263 0.0272418 1.9083e-05 1013.67 0.000173881 0.0771623)
10(0 2.33936e-15 0.000678993 322.034 1.09594 0.0279711 1.95324e-05 1017.28 0.000347763 0.154325)
10(0 3.50904e-15 0.00101849 333.052 1.06559 0.0287003 1.99817e-05 1020.89 0.000521644 0.231487)
10(0 4.67872e-15 0.00135799 344.069 1.03524 0.0294296 2.0431e-05 1024.5 0.000695525 0.308649)
10(0 5.84841e-15 0.00169748 355.086 1.00489 0.0301588 2.08804e-05 1028.1 0.000869406 0.385812)
10(0 7.01809e-15 0.00203698 366.103 0.97454 0.030888 2.13297e-05 1031.71 0.00104329 0.462974)
10(0 8.18777e-15 0.00237648 377.12 0.944189 0.0316173 2.1779e-05 1035.32 0.00121717 0.540136)
10(0 9.35745e-15 0.00271597 388.137 0.913837 0.0323465 2.22284e-05 1038.93 0.00139105 0.617298)
10(0 1.05271e-14 0.00305547 399.155 0.883486 0.0330758 2.26777e-05 1042.53 0.00156493 0.694461)
10(0 1.16968e-14 0.00339497 410.172 0.853135 0.033805 2.3127e-05 1046.14 0.00173881 0.771623)
10(0 1.28665e-14 0.00373446 421.189 0.822784 0.0345342 2.35764e-05 1049.75 0.00191269 0.848785)
10(0 1.40362e-14 0.00407396 432.206 0.792432 0.0352635 2.40257e-05 1053.36 0.00208658 0.925948)
10(0 9.68491e-14 0.00441571 442.331 0.773488 0.0359619 2.43971e-05 1057.66 0.00397465 0.505513)
10(0 1.01015e-12 0.00476659 452.621 0.755157 0.0366754 2.47707e-05 1062.11 0.00847122 0.290567)
10(0 8.54038e-12 0.00510626 463.583 0.736561 0.0374378 2.51649e-05 1066.87 0.0160453 0.178384)
10(0 6.09652e-11 0.00544748 473.545 0.720313 0.0381384 2.55172e-05 1071.52 0.0264554 0.11017)
10(0 3.47948e-10 0.00578377 485.427 0.701532 0.0389712 2.59386e-05 1076.78 0.106851 0.0787767)
10(0 2.00639e-09 0.00612489 494.965 0.686531 0.0396532 2.62711e-05 1081.55 1.05753 0.0553054)
10(0 1.56076e-08 0.00646209 506.84 0.669671 0.0404951 2.66814e-05 1087.11 0.0295841 0.0454912)
10(0 1.17152e-07 0.00680039 517.148 0.655862 0.0412376 2.70289e-05 1092.4 0.0615236 0.0306878)
10(0 7.86849e-07 0.00713558 529.799 0.639241 0.0421437 2.74586e-05 1098.47 0.340719 0.0278669)
10(0 4.49487e-06 0.00748389 543.001 0.622557 0.0430948 2.79047e-05 1104.82 0.081751 0.0252236)
10(0 2.29555e-05 0.00781126 557.998 0.60518 0.0441745 2.84028e-05 1111.99 0.0709637 0.0255412)
10(0 8.78355e-05 0.00815481 573.586 0.587949 0.0453027 2.8918e-05 1119.45 0.0847095 0.0257636)
10(0 0.000310873 0.00849653 589.866 0.570764 0.0464879 2.94504e-05 1127.35 0.468076 0.0259216)
10(0 0.000911795 0.00883318 606.397 0.554837 0.0476987 2.99811e-05 1135.54 0.266002 0.0260311)
10(0 0.00245657 0.00917222 625.623 0.536436 0.0491051 3.0601e-05 1144.8 0.213593 0.0261116)
10(0 0.00608248 0.00951131 642.767 0.521155 0.0503814 3.11415e-05 1153.58 0.043639 0.0261717)
10(0 0.0138308 0.00985026 661.179 0.505838 0.0517537 3.17165e-05 1162.97 0.101273 0.0262181)
10(0 0.0287961 0.0101917 680.306 0.490685 0.0531873 3.23082e-05 1172.8 0.0362773 0.0262566)
10(0 0.0583393 0.010539 698.381 0.477374 0.0545611 3.28572e-05 1182.42 0.0991211 0.0262882)
10(0 0.108268 0.0108666 719.616 0.462413 0.056165 3.35009e-05 1193.35 0.0692165 0.0263168)
10(0 0.190638 0.0111926 741.001 0.448189 0.0577963 3.41417e-05 1204.51 0.345335 0.0263426)
10(0 0.31818 0.0115273 761.37 0.435549 0.0593693 3.47421e-05 1215.39 0.0921299 0.026366)
10(0 0.492034 0.0118578 782.403 0.422786 0.0610065 3.536e-05 1226.68 0.0599091 0.0263877)
10(0 0.732047 0.0121819 802.12 0.411621 0.062567 3.59291e-05 1237.55 0.0603604 0.027966)
10(0 1.04313 0.0124945 823.264 0.400143 0.064244 3.65361e-05 1249.06 0.534831 0.0280683)
10(0 1.46252 0.0127919 844.543 0.389273 0.0659477 3.714e-05 1260.61 0.0579564 0.0351152)
10(0 1.95544 0.0130783 864.791 0.37938 0.0675973 3.77077e-05 1271.83 0.0448864 0.0362841)
10(0 2.54043 0.0133381 887.837 0.368722 0.0694621 3.83516e-05 1284.09 0.0371399 0.0375236)
10(0 3.09079 0.01357 905.368 0.360802 0.0709653 3.883e-05 1294.46 0.168648 0.0484409)
10(0 3.70775 0.0137661 922.266 0.353495 0.0724385 3.92862e-05 1304.51 0.0389488 0.0508758)
10(0 4.40953 0.0139137 940.739 0.345676 0.0740449 3.97863e-05 1315.2 0.0612099 0.0665411)
10(0 4.98128 0.0139839 956.597 0.33922 0.0754846 4.02072e-05 1324.97 0.025132 0.0708246)
10(0 5.40701 0.013939 966.519 0.335025 0.076532 4.04592e-05 1332.87 0.119154 0.0154751)
10(0 5.55854 0.0138108 972.881 0.332074 0.0773426 4.06117e-05 1339.78 0.0238704 0.064522)
10(0 5.39056 0.0135441 976.59 0.330053 0.0779724 4.06905e-05 1345.98 0.431347 0.0721741)
10(0 5.0191 0.0131343 973.034 0.330662 0.0781098 4.05644e-05 1349.87 0.0210105 0.0806019)
10(0 4.42409 0.0126795 965.582 0.332485 0.0779437 4.03329e-05 1352.48 1.94638 0.0755132)
10(0 -0 -0 300 1.15665 0.0265126 1.86337e-05 1010.07 -0 -0)
10(0 4.06771e-15 0.000407396 312.679 1.12338 0.0273499 1.91469e-05 1014.03 0.000149823 0.0782963)
10(0 8.13541e-15 0.000814792 325.358 1.0901 0.0281871 1.96601e-05 1018 0.000299646 0.156593)
10(0 1.22031e-14 0.00122219 338.038 1.05683 0.0290244 2.01733e-05 1021.96 0.000449469 0.234889)
10(0 1.62708e-14 0.00162958 350.717 1.02356 0.0298617 2.06865e-05 1025.93 0.000599292 0.313185)
10(0 2.03385e-14 0.00203698 363.396 0.990287 0.030699 2.11997e-05 1029.89 0.000749115 0.391481)
10(0 2.44062e-14 0.00244438 376.075 0.957015 0.0315363 2.17129e-05 1033.86 0.000898938 0.469778)
10(0 2.84739e-14 0.00285177 388.754 0.923743 0.0323735 2.22261e-05 1037.82 0.00104876 0.548074)
10(0 3.25416e-14 0.00325917 401.434 0.890471 0.0332108 2.27393e-05 1041.79 0.00119858 0.62637)