/*---------------------------------------------------------------------------*\
| =========                 |                                                 |
| \\      /  F ield         | OpenFOAM: The Open Source CFD Toolbox           |
|  \\    /   O peration     | Version:  1.3                                   |
|   \\  /    A nd           | Web:      http://www.openfoam.org               |
|    \\/     M anipulation  |                                                 |
\*---------------------------------------------------------------------------*/

FoamFile
{
    version         2.0;
    format          ascii;

    root            "";
    case            "";
    instance        "";
    local           "";

    class           dictionary;
    object          thermodynamicProperties;
}

/* * * * * * * * * * * * * * * * * * * * * * * * * * * * * * * * * * */

thermoType SIJPDFvarZthermo;

LDMtableName LDMtable;


mixtureFractionVariableName z;


compositionPDFs
(
 {
  PDFtype beta;
  variable z;
  preIntegrationResolutionFirstMoment 20;
  preIntegrationResolutionSecondMoment 20;
 }
 {
  PDFtype beta;
  variable CO2;
  preIntegrationResolutionFirstMoment 20;
  preIntegrationResolutionSecondMoment 20;
 }
);

ZSecondMoment
{ 
 type transport;
 C_D 1.0;
 Sc_t 1.0;
};

CO2SecondMoment
{ 
 type transport;
 C_D 4.0;
 Sc_t 1.0;
};

/*********************************************************************/
