/*--------------------------------*- C++ -*----------------------------------*\
| =========                 |                                                 |
| \\      /  F ield         | OpenFOAM: The Open Source CFD Toolbox           |
|  \\    /   O peration     | Version:  1.5                                   |
|   \\  /    A nd           | Web:      http://www.OpenFOAM.org               |
|    \\/     M anipulation  |                                                 |
\*---------------------------------------------------------------------------*/
FoamFile
{
    version     2.0;
    format      ascii;
    class       dictionary;
    location    "constant";
    object      LDMtable;
}
// * * * * * * * * * * * * * * * * * * * * * * * * * * * * * * * * * * * * * //

constantNormValue_CO2 0.161685;
tableData (
1 50 
0 
0.0204082 
9(5.89132e-13 300 1.18114 0.0261262 1.77919e-05 1050.07 5.79429e-14 1.47981e-09 0)
9(0.0188705 510.342 0.680101 0.0417658 2.61017e-05 1156.3 0.00329969 46.7417 0.00606258)
9(0.163295 630.241 0.546408 0.0503336 3.01657e-05 1211.32 0.00659939 82.44 0.00611236)
9(0.643841 726.823 0.470751 0.0571986 3.32326e-05 1252.84 0.00989908 111.979 0.00614531)
9(1.8174 810.372 0.419789 0.0631105 3.57777e-05 1285.4 0.0131988 142.497 0.00617063)
9(4.28192 885.31 0.38221 0.06839 3.79945e-05 1310.82 0.0164985 167.716 0.00619171)
9(9.08522 954.208 0.352836 0.0732223 3.99878e-05 1330.15 0.0197982 190.717 0.00620992)
9(17.6694 1018.74 0.328922 0.0777255 4.18214e-05 1343.73 0.0230979 207.916 0.00622619)
9(31.8662 1080.14 0.308849 0.0819841 4.35379e-05 1353.3 0.0263975 228.116 0.006241)
9(53.6901 1139.15 0.291651 0.0860468 4.51617e-05 1360.91 0.0296972 246.212 0.00625465)
9(85.057 1196.24 0.276705 0.089942 4.67068e-05 1367.16 0.0329969 262.639 0.00626739)
9(127.464 1251.6 0.2636 0.0936828 4.81801e-05 1372.55 0.0362966 277.278 0.00627943)
9(181.693 1305.26 0.252048 0.097271 4.95835e-05 1377.4 0.0395963 290.034 0.0062909)
9(247.633 1357.08 0.241845 0.100701 5.09161e-05 1381.95 0.042896 300.853 0.00630195)
9(324.223 1406.84 0.232834 0.103961 5.21752e-05 1386.32 0.0461957 309.718 0.00631265)
9(409.545 1454.27 0.224885 0.107041 5.33579e-05 1390.54 0.0494954 316.637 0.00632311)
9(500.995 1499.13 0.217886 0.109932 5.44622e-05 1394.63 0.0527951 321.632 0.00633339)
9(595.516 1541.24 0.211736 0.112627 5.54872e-05 1398.58 0.0560948 324.729 0.00634357)
9(689.83 1580.48 0.206343 0.115124 5.64335e-05 1402.36 0.0593945 325.951 0.00635369)
9(780.668 1616.8 0.201622 0.117425 5.73027e-05 1405.97 0.0626942 325.322 0.00636383)
9(864.957 1650.21 0.197494 0.119535 5.80973e-05 1409.4 0.0659939 322.871 0.00637404)
9(939.982 1680.8 0.193891 0.121461 5.88212e-05 1412.66 0.0692936 318.636 0.00638437)
9(1003.49 1708.72 0.190744 0.123214 5.94787e-05 1415.75 0.0725933 312.66 0.00639488)
9(1053.77 1734.13 0.187995 0.124807 6.00751e-05 1418.68 0.075893 304.999 0.00640565)
9(1089.6 1757.29 0.185586 0.126255 6.06166e-05 1421.47 0.0791926 295.716 0.00641674)
9(1110.3 1778.46 0.183466 0.127576 6.11098e-05 1424.11 0.0824923 284.879 0.00642823)
9(1115.57 1797.92 0.181584 0.128786 6.15617e-05 1426.62 0.085792 272.563 0.00644022)
9(1105.49 1815.98 0.179898 0.129905 6.19793e-05 1429.01 0.0890917 258.852 0.00645281)
9(1080.4 1832.91 0.178368 0.130948 6.23696e-05 1431.28 0.0923914 243.861 0.00646614)
9(1040.91 1849 0.176961 0.131932 6.27385e-05 1433.44 0.0956911 228.688 0.00648038)
9(987.842 1864.45 0.175649 0.132869 6.30915e-05 1435.51 0.0989908 214.216 0.00649574)
9(922.387 1879.53 0.174404 0.133773 6.34344e-05 1437.49 0.102291 195.813 0.00651246)
9(845.873 1894.42 0.173205 0.134655 6.37716e-05 1439.4 0.10559 176.847 0.00653087)
9(759.629 1909.28 0.172038 0.13552 6.41063e-05 1441.25 0.10889 161.07 0.00655153)
9(665.305 1924.3 0.170885 0.136377 6.4443e-05 1443.05 0.11219 145.799 0.00657534)
9(565.229 1939.69 0.169728 0.137233 6.47862e-05 1444.85 0.115489 128.338 0.00660309)
9(461.91 1955.66 0.168548 0.138098 6.51404e-05 1446.66 0.118789 107.781 0.00663566)
9(358.078 1972.54 0.167321 0.138982 6.55131e-05 1448.55 0.122089 86.7755 0.00667557)
9(257.419 1990.81 0.166013 0.139897 6.59141e-05 1450.57 0.125388 67.6492 0.00672675)
9(164.907 2011.09 0.164583 0.140862 6.63562e-05 1452.8 0.128688 48.4312 0.00679507)
9(88.1783 2034.39 0.162964 0.141905 6.68609e-05 1455.38 0.131988 31.547 0.00689304)
9(39.3671 2062.39 0.161053 0.143068 6.74628e-05 1458.5 0.135287 19.6901 0.00705018)
9(20.8081 2094.48 0.158915 0.144329 6.81473e-05 1462.05 0.138587 12.1853 0.00729683)
9(17.5298 2127.17 0.156808 0.145589 6.88398e-05 1465.59 0.141887 8.5347 0.00765453)
9(15.891 2157.86 0.154897 0.146777 6.94863e-05 1468.8 0.145187 6.21864 0.008149)
9(12.7311 2186.2 0.15319 0.147888 7.00805e-05 1471.66 0.148486 4.38018 0.00886133)
9(8.92832 2212.72 0.15164 0.148945 7.06336e-05 1474.27 0.151786 2.76165 0.00992792)
9(5.22197 2237.67 0.150221 0.149951 7.11521e-05 1476.64 0.155086 1.49386 0.0118724)
9(2.04499 2261.41 0.148904 0.150922 7.16434e-05 1478.86 0.158385 0.335948 0.0164006)
9(1.29583 2267.33 0.148578 0.151172 7.17656e-05 1479.43 0.159217 0 0.021)
)
 
1
(
CO2 0
) 
9
(
x 8
lambda 3
YdotCO2 0
grad(CO2) 7
Cp 5
YCO2 6
rho 2
mu 4
T 1
);
