FoamFile
{
    version         2.0;
    format          ascii;
    root            "";
    case            "";
    instance        "";
    local           "";
    class           dictionary;
    object          sampleDict;
}
interpolationScheme cellPointFace;
surfaceFormat vtk;
setFormat     raw;
sets (
xToH_0.4_0  {
type uniform;
axis y;
start ( .0100  -0.025 -.0380);
end ( .0100  0.025 -.0380);
nPoints 50;
}
xToH_0.4_1  {
type uniform;
axis y;
start ( .0100  -0.025 -.0361);
end ( .0100  0.025 -.0361);
nPoints 50;
}
xToH_0.4_2  {
type uniform;
axis y;
start ( .0100  -0.025 -.0341);
end ( .0100  0.025 -.0341);
nPoints 50;
}
xToH_0.4_3  {
type uniform;
axis y;
start ( .0100  -0.025 -.0321);
end ( .0100  0.025 -.0321);
nPoints 50;
}
xToH_0.4_4  {
type uniform;
axis y;
start ( .0100  -0.025 -.0301);
end ( .0100  0.025 -.0301);
nPoints 50;
}
xToH_0.4_5  {
type uniform;
axis y;
start ( .0100  -0.025 -.0281);
end ( .0100  0.025 -.0281);
nPoints 50;
}
xToH_0.4_6  {
type uniform;
axis y;
start ( .0100  -0.025 -.0261);
end ( .0100  0.025 -.0261);
nPoints 50;
}
xToH_0.4_7  {
type uniform;
axis y;
start ( .0100  -0.025 -.0241);
end ( .0100  0.025 -.0241);
nPoints 50;
}
xToH_0.4_8  {
type uniform;
axis y;
start ( .0100  -0.025 -.0221);
end ( .0100  0.025 -.0221);
nPoints 50;
}
xToH_0.4_9  {
type uniform;
axis y;
start ( .0100  -0.025 -.0201);
end ( .0100  0.025 -.0201);
nPoints 50;
}
xToH_0.4_10  {
type uniform;
axis y;
start ( .0100  -0.025 -.0181);
end ( .0100  0.025 -.0181);
nPoints 50;
}
xToH_0.4_11  {
type uniform;
axis y;
start ( .0100  -0.025 -.0161);
end ( .0100  0.025 -.0161);
nPoints 50;
}
xToH_0.4_12  {
type uniform;
axis y;
start ( .0100  -0.025 -.0141);
end ( .0100  0.025 -.0141);
nPoints 50;
}
xToH_0.4_13  {
type uniform;
axis y;
start ( .0100  -0.025 -.0121);
end ( .0100  0.025 -.0121);
nPoints 50;
}
xToH_0.4_14  {
type uniform;
axis y;
start ( .0100  -0.025 -.0101);
end ( .0100  0.025 -.0101);
nPoints 50;
}
xToH_0.4_15  {
type uniform;
axis y;
start ( .0100  -0.025 -.0081);
end ( .0100  0.025 -.0081);
nPoints 50;
}
xToH_0.4_16  {
type uniform;
axis y;
start ( .0100  -0.025 -.0061);
end ( .0100  0.025 -.0061);
nPoints 50;
}
xToH_0.4_17  {
type uniform;
axis y;
start ( .0100  -0.025 -.0041);
end ( .0100  0.025 -.0041);
nPoints 50;
}
xToH_0.4_18  {
type uniform;
axis y;
start ( .0100  -0.025 -.0021);
end ( .0100  0.025 -.0021);
nPoints 50;
}
xToH_0.4_19  {
type uniform;
axis y;
start ( .0100  -0.025 0);
end ( .0100  0.025 0);
nPoints 50;
}
xToH_0.4_20  {
type uniform;
axis y;
start ( .0100  -0.025 .0019);
end ( .0100  0.025 .0019);
nPoints 50;
}
xToH_0.4_21  {
type uniform;
axis y;
start ( .0100  -0.025 .0039);
end ( .0100  0.025 .0039);
nPoints 50;
}
xToH_0.4_22  {
type uniform;
axis y;
start ( .0100  -0.025 .0059);
end ( .0100  0.025 .0059);
nPoints 50;
}
xToH_0.4_23  {
type uniform;
axis y;
start ( .0100  -0.025 .0079);
end ( .0100  0.025 .0079);
nPoints 50;
}
xToH_0.4_24  {
type uniform;
axis y;
start ( .0100  -0.025 .0099);
end ( .0100  0.025 .0099);
nPoints 50;
}
xToH_0.4_25  {
type uniform;
axis y;
start ( .0100  -0.025 .0119);
end ( .0100  0.025 .0119);
nPoints 50;
}
xToH_0.4_26  {
type uniform;
axis y;
start ( .0100  -0.025 .0139);
end ( .0100  0.025 .0139);
nPoints 50;
}
xToH_0.4_27  {
type uniform;
axis y;
start ( .0100  -0.025 .0159);
end ( .0100  0.025 .0159);
nPoints 50;
}
xToH_0.4_28  {
type uniform;
axis y;
start ( .0100  -0.025 .0179);
end ( .0100  0.025 .0179);
nPoints 50;
}
xToH_0.4_29  {
type uniform;
axis y;
start ( .0100  -0.025 .0199);
end ( .0100  0.025 .0199);
nPoints 50;
}
xToH_0.4_30  {
type uniform;
axis y;
start ( .0100  -0.025 .0219);
end ( .0100  0.025 .0219);
nPoints 50;
}
xToH_0.4_31  {
type uniform;
axis y;
start ( .0100  -0.025 .0239);
end ( .0100  0.025 .0239);
nPoints 50;
}
xToH_0.4_32  {
type uniform;
axis y;
start ( .0100  -0.025 .0259);
end ( .0100  0.025 .0259);
nPoints 50;
}
xToH_0.4_33  {
type uniform;
axis y;
start ( .0100  -0.025 .0279);
end ( .0100  0.025 .0279);
nPoints 50;
}
xToH_0.4_34  {
type uniform;
axis y;
start ( .0100  -0.025 .0299);
end ( .0100  0.025 .0299);
nPoints 50;
}
xToH_0.4_35  {
type uniform;
axis y;
start ( .0100  -0.025 .0319);
end ( .0100  0.025 .0319);
nPoints 50;
}
xToH_0.4_36  {
type uniform;
axis y;
start ( .0100  -0.025 .0339);
end ( .0100  0.025 .0339);
nPoints 50;
}
xToH_0.4_37  {
type uniform;
axis y;
start ( .0100  -0.025 .0359);
end ( .0100  0.025 .0359);
nPoints 50;
}
xToH_0.4_38  {
type uniform;
axis y;
start ( .0100  -0.025 .0380);
end ( .0100  0.025 .0380);
nPoints 50;
}
xToH_1_0  {
type uniform;
axis y;
start ( .025  -0.025 -.0380);
end ( .025  0.025 -.0380);
nPoints 50;
}
xToH_1_1  {
type uniform;
axis y;
start ( .025  -0.025 -.0361);
end ( .025  0.025 -.0361);
nPoints 50;
}
xToH_1_2  {
type uniform;
axis y;
start ( .025  -0.025 -.0341);
end ( .025  0.025 -.0341);
nPoints 50;
}
xToH_1_3  {
type uniform;
axis y;
start ( .025  -0.025 -.0321);
end ( .025  0.025 -.0321);
nPoints 50;
}
xToH_1_4  {
type uniform;
axis y;
start ( .025  -0.025 -.0301);
end ( .025  0.025 -.0301);
nPoints 50;
}
xToH_1_5  {
type uniform;
axis y;
start ( .025  -0.025 -.0281);
end ( .025  0.025 -.0281);
nPoints 50;
}
xToH_1_6  {
type uniform;
axis y;
start ( .025  -0.025 -.0261);
end ( .025  0.025 -.0261);
nPoints 50;
}
xToH_1_7  {
type uniform;
axis y;
start ( .025  -0.025 -.0241);
end ( .025  0.025 -.0241);
nPoints 50;
}
xToH_1_8  {
type uniform;
axis y;
start ( .025  -0.025 -.0221);
end ( .025  0.025 -.0221);
nPoints 50;
}
xToH_1_9  {
type uniform;
axis y;
start ( .025  -0.025 -.0201);
end ( .025  0.025 -.0201);
nPoints 50;
}
xToH_1_10  {
type uniform;
axis y;
start ( .025  -0.025 -.0181);
end ( .025  0.025 -.0181);
nPoints 50;
}
xToH_1_11  {
type uniform;
axis y;
start ( .025  -0.025 -.0161);
end ( .025  0.025 -.0161);
nPoints 50;
}
xToH_1_12  {
type uniform;
axis y;
start ( .025  -0.025 -.0141);
end ( .025  0.025 -.0141);
nPoints 50;
}
xToH_1_13  {
type uniform;
axis y;
start ( .025  -0.025 -.0121);
end ( .025  0.025 -.0121);
nPoints 50;
}
xToH_1_14  {
type uniform;
axis y;
start ( .025  -0.025 -.0101);
end ( .025  0.025 -.0101);
nPoints 50;
}
xToH_1_15  {
type uniform;
axis y;
start ( .025  -0.025 -.0081);
end ( .025  0.025 -.0081);
nPoints 50;
}
xToH_1_16  {
type uniform;
axis y;
start ( .025  -0.025 -.0061);
end ( .025  0.025 -.0061);
nPoints 50;
}
xToH_1_17  {
type uniform;
axis y;
start ( .025  -0.025 -.0041);
end ( .025  0.025 -.0041);
nPoints 50;
}
xToH_1_18  {
type uniform;
axis y;
start ( .025  -0.025 -.0021);
end ( .025  0.025 -.0021);
nPoints 50;
}
xToH_1_19  {
type uniform;
axis y;
start ( .025  -0.025 0);
end ( .025  0.025 0);
nPoints 50;
}
xToH_1_20  {
type uniform;
axis y;
start ( .025  -0.025 .0019);
end ( .025  0.025 .0019);
nPoints 50;
}
xToH_1_21  {
type uniform;
axis y;
start ( .025  -0.025 .0039);
end ( .025  0.025 .0039);
nPoints 50;
}
xToH_1_22  {
type uniform;
axis y;
start ( .025  -0.025 .0059);
end ( .025  0.025 .0059);
nPoints 50;
}
xToH_1_23  {
type uniform;
axis y;
start ( .025  -0.025 .0079);
end ( .025  0.025 .0079);
nPoints 50;
}
xToH_1_24  {
type uniform;
axis y;
start ( .025  -0.025 .0099);
end ( .025  0.025 .0099);
nPoints 50;
}
xToH_1_25  {
type uniform;
axis y;
start ( .025  -0.025 .0119);
end ( .025  0.025 .0119);
nPoints 50;
}
xToH_1_26  {
type uniform;
axis y;
start ( .025  -0.025 .0139);
end ( .025  0.025 .0139);
nPoints 50;
}
xToH_1_27  {
type uniform;
axis y;
start ( .025  -0.025 .0159);
end ( .025  0.025 .0159);
nPoints 50;
}
xToH_1_28  {
type uniform;
axis y;
start ( .025  -0.025 .0179);
end ( .025  0.025 .0179);
nPoints 50;
}
xToH_1_29  {
type uniform;
axis y;
start ( .025  -0.025 .0199);
end ( .025  0.025 .0199);
nPoints 50;
}
xToH_1_30  {
type uniform;
axis y;
start ( .025  -0.025 .0219);
end ( .025  0.025 .0219);
nPoints 50;
}
xToH_1_31  {
type uniform;
axis y;
start ( .025  -0.025 .0239);
end ( .025  0.025 .0239);
nPoints 50;
}
xToH_1_32  {
type uniform;
axis y;
start ( .025  -0.025 .0259);
end ( .025  0.025 .0259);
nPoints 50;
}
xToH_1_33  {
type uniform;
axis y;
start ( .025  -0.025 .0279);
end ( .025  0.025 .0279);
nPoints 50;
}
xToH_1_34  {
type uniform;
axis y;
start ( .025  -0.025 .0299);
end ( .025  0.025 .0299);
nPoints 50;
}
xToH_1_35  {
type uniform;
axis y;
start ( .025  -0.025 .0319);
end ( .025  0.025 .0319);
nPoints 50;
}
xToH_1_36  {
type uniform;
axis y;
start ( .025  -0.025 .0339);
end ( .025  0.025 .0339);
nPoints 50;
}
xToH_1_37  {
type uniform;
axis y;
start ( .025  -0.025 .0359);
end ( .025  0.025 .0359);
nPoints 50;
}
xToH_1_38  {
type uniform;
axis y;
start ( .025  -0.025 .0380);
end ( .025  0.025 .0380);
nPoints 50;
}
xToH_1.2_0  {
type uniform;
axis y;
start ( .0300  -0.025 -.0380);
end ( .0300  0.025 -.0380);
nPoints 50;
}
xToH_1.2_1  {
type uniform;
axis y;
start ( .0300  -0.025 -.0361);
end ( .0300  0.025 -.0361);
nPoints 50;
}
xToH_1.2_2  {
type uniform;
axis y;
start ( .0300  -0.025 -.0341);
end ( .0300  0.025 -.0341);
nPoints 50;
}
xToH_1.2_3  {
type uniform;
axis y;
start ( .0300  -0.025 -.0321);
end ( .0300  0.025 -.0321);
nPoints 50;
}
xToH_1.2_4  {
type uniform;
axis y;
start ( .0300  -0.025 -.0301);
end ( .0300  0.025 -.0301);
nPoints 50;
}
xToH_1.2_5  {
type uniform;
axis y;
start ( .0300  -0.025 -.0281);
end ( .0300  0.025 -.0281);
nPoints 50;
}
xToH_1.2_6  {
type uniform;
axis y;
start ( .0300  -0.025 -.0261);
end ( .0300  0.025 -.0261);
nPoints 50;
}
xToH_1.2_7  {
type uniform;
axis y;
start ( .0300  -0.025 -.0241);
end ( .0300  0.025 -.0241);
nPoints 50;
}
xToH_1.2_8  {
type uniform;
axis y;
start ( .0300  -0.025 -.0221);
end ( .0300  0.025 -.0221);
nPoints 50;
}
xToH_1.2_9  {
type uniform;
axis y;
start ( .0300  -0.025 -.0201);
end ( .0300  0.025 -.0201);
nPoints 50;
}
xToH_1.2_10  {
type uniform;
axis y;
start ( .0300  -0.025 -.0181);
end ( .0300  0.025 -.0181);
nPoints 50;
}
xToH_1.2_11  {
type uniform;
axis y;
start ( .0300  -0.025 -.0161);
end ( .0300  0.025 -.0161);
nPoints 50;
}
xToH_1.2_12  {
type uniform;
axis y;
start ( .0300  -0.025 -.0141);
end ( .0300  0.025 -.0141);
nPoints 50;
}
xToH_1.2_13  {
type uniform;
axis y;
start ( .0300  -0.025 -.0121);
end ( .0300  0.025 -.0121);
nPoints 50;
}
xToH_1.2_14  {
type uniform;
axis y;
start ( .0300  -0.025 -.0101);
end ( .0300  0.025 -.0101);
nPoints 50;
}
xToH_1.2_15  {
type uniform;
axis y;
start ( .0300  -0.025 -.0081);
end ( .0300  0.025 -.0081);
nPoints 50;
}
xToH_1.2_16  {
type uniform;
axis y;
start ( .0300  -0.025 -.0061);
end ( .0300  0.025 -.0061);
nPoints 50;
}
xToH_1.2_17  {
type uniform;
axis y;
start ( .0300  -0.025 -.0041);
end ( .0300  0.025 -.0041);
nPoints 50;
}
xToH_1.2_18  {
type uniform;
axis y;
start ( .0300  -0.025 -.0021);
end ( .0300  0.025 -.0021);
nPoints 50;
}
xToH_1.2_19  {
type uniform;
axis y;
start ( .0300  -0.025 0);
end ( .0300  0.025 0);
nPoints 50;
}
xToH_1.2_20  {
type uniform;
axis y;
start ( .0300  -0.025 .0019);
end ( .0300  0.025 .0019);
nPoints 50;
}
xToH_1.2_21  {
type uniform;
axis y;
start ( .0300  -0.025 .0039);
end ( .0300  0.025 .0039);
nPoints 50;
}
xToH_1.2_22  {
type uniform;
axis y;
start ( .0300  -0.025 .0059);
end ( .0300  0.025 .0059);
nPoints 50;
}
xToH_1.2_23  {
type uniform;
axis y;
start ( .0300  -0.025 .0079);
end ( .0300  0.025 .0079);
nPoints 50;
}
xToH_1.2_24  {
type uniform;
axis y;
start ( .0300  -0.025 .0099);
end ( .0300  0.025 .0099);
nPoints 50;
}
xToH_1.2_25  {
type uniform;
axis y;
start ( .0300  -0.025 .0119);
end ( .0300  0.025 .0119);
nPoints 50;
}
xToH_1.2_26  {
type uniform;
axis y;
start ( .0300  -0.025 .0139);
end ( .0300  0.025 .0139);
nPoints 50;
}
xToH_1.2_27  {
type uniform;
axis y;
start ( .0300  -0.025 .0159);
end ( .0300  0.025 .0159);
nPoints 50;
}
xToH_1.2_28  {
type uniform;
axis y;
start ( .0300  -0.025 .0179);
end ( .0300  0.025 .0179);
nPoints 50;
}
xToH_1.2_29  {
type uniform;
axis y;
start ( .0300  -0.025 .0199);
end ( .0300  0.025 .0199);
nPoints 50;
}
xToH_1.2_30  {
type uniform;
axis y;
start ( .0300  -0.025 .0219);
end ( .0300  0.025 .0219);
nPoints 50;
}
xToH_1.2_31  {
type uniform;
axis y;
start ( .0300  -0.025 .0239);
end ( .0300  0.025 .0239);
nPoints 50;
}
xToH_1.2_32  {
type uniform;
axis y;
start ( .0300  -0.025 .0259);
end ( .0300  0.025 .0259);
nPoints 50;
}
xToH_1.2_33  {
type uniform;
axis y;
start ( .0300  -0.025 .0279);
end ( .0300  0.025 .0279);
nPoints 50;
}
xToH_1.2_34  {
type uniform;
axis y;
start ( .0300  -0.025 .0299);
end ( .0300  0.025 .0299);
nPoints 50;
}
xToH_1.2_35  {
type uniform;
axis y;
start ( .0300  -0.025 .0319);
end ( .0300  0.025 .0319);
nPoints 50;
}
xToH_1.2_36  {
type uniform;
axis y;
start ( .0300  -0.025 .0339);
end ( .0300  0.025 .0339);
nPoints 50;
}
xToH_1.2_37  {
type uniform;
axis y;
start ( .0300  -0.025 .0359);
end ( .0300  0.025 .0359);
nPoints 50;
}
xToH_1.2_38  {
type uniform;
axis y;
start ( .0300  -0.025 .0380);
end ( .0300  0.025 .0380);
nPoints 50;
}
xToH_3_0  {
type uniform;
axis y;
start ( .075  -0.025 -.0380);
end ( .075  0.025 -.0380);
nPoints 50;
}
xToH_3_1  {
type uniform;
axis y;
start ( .075  -0.025 -.0361);
end ( .075  0.025 -.0361);
nPoints 50;
}
xToH_3_2  {
type uniform;
axis y;
start ( .075  -0.025 -.0341);
end ( .075  0.025 -.0341);
nPoints 50;
}
xToH_3_3  {
type uniform;
axis y;
start ( .075  -0.025 -.0321);
end ( .075  0.025 -.0321);
nPoints 50;
}
xToH_3_4  {
type uniform;
axis y;
start ( .075  -0.025 -.0301);
end ( .075  0.025 -.0301);
nPoints 50;
}
xToH_3_5  {
type uniform;
axis y;
start ( .075  -0.025 -.0281);
end ( .075  0.025 -.0281);
nPoints 50;
}
xToH_3_6  {
type uniform;
axis y;
start ( .075  -0.025 -.0261);
end ( .075  0.025 -.0261);
nPoints 50;
}
xToH_3_7  {
type uniform;
axis y;
start ( .075  -0.025 -.0241);
end ( .075  0.025 -.0241);
nPoints 50;
}
xToH_3_8  {
type uniform;
axis y;
start ( .075  -0.025 -.0221);
end ( .075  0.025 -.0221);
nPoints 50;
}
xToH_3_9  {
type uniform;
axis y;
start ( .075  -0.025 -.0201);
end ( .075  0.025 -.0201);
nPoints 50;
}
xToH_3_10  {
type uniform;
axis y;
start ( .075  -0.025 -.0181);
end ( .075  0.025 -.0181);
nPoints 50;
}
xToH_3_11  {
type uniform;
axis y;
start ( .075  -0.025 -.0161);
end ( .075  0.025 -.0161);
nPoints 50;
}
xToH_3_12  {
type uniform;
axis y;
start ( .075  -0.025 -.0141);
end ( .075  0.025 -.0141);
nPoints 50;
}
xToH_3_13  {
type uniform;
axis y;
start ( .075  -0.025 -.0121);
end ( .075  0.025 -.0121);
nPoints 50;
}
xToH_3_14  {
type uniform;
axis y;
start ( .075  -0.025 -.0101);
end ( .075  0.025 -.0101);
nPoints 50;
}
xToH_3_15  {
type uniform;
axis y;
start ( .075  -0.025 -.0081);
end ( .075  0.025 -.0081);
nPoints 50;
}
xToH_3_16  {
type uniform;
axis y;
start ( .075  -0.025 -.0061);
end ( .075  0.025 -.0061);
nPoints 50;
}
xToH_3_17  {
type uniform;
axis y;
start ( .075  -0.025 -.0041);
end ( .075  0.025 -.0041);
nPoints 50;
}
xToH_3_18  {
type uniform;
axis y;
start ( .075  -0.025 -.0021);
end ( .075  0.025 -.0021);
nPoints 50;
}
xToH_3_19  {
type uniform;
axis y;
start ( .075  -0.025 0);
end ( .075  0.025 0);
nPoints 50;
}
xToH_3_20  {
type uniform;
axis y;
start ( .075  -0.025 .0019);
end ( .075  0.025 .0019);
nPoints 50;
}
xToH_3_21  {
type uniform;
axis y;
start ( .075  -0.025 .0039);
end ( .075  0.025 .0039);
nPoints 50;
}
xToH_3_22  {
type uniform;
axis y;
start ( .075  -0.025 .0059);
end ( .075  0.025 .0059);
nPoints 50;
}
xToH_3_23  {
type uniform;
axis y;
start ( .075  -0.025 .0079);
end ( .075  0.025 .0079);
nPoints 50;
}
xToH_3_24  {
type uniform;
axis y;
start ( .075  -0.025 .0099);
end ( .075  0.025 .0099);
nPoints 50;
}
xToH_3_25  {
type uniform;
axis y;
start ( .075  -0.025 .0119);
end ( .075  0.025 .0119);
nPoints 50;
}
xToH_3_26  {
type uniform;
axis y;
start ( .075  -0.025 .0139);
end ( .075  0.025 .0139);
nPoints 50;
}
xToH_3_27  {
type uniform;
axis y;
start ( .075  -0.025 .0159);
end ( .075  0.025 .0159);
nPoints 50;
}
xToH_3_28  {
type uniform;
axis y;
start ( .075  -0.025 .0179);
end ( .075  0.025 .0179);
nPoints 50;
}
xToH_3_29  {
type uniform;
axis y;
start ( .075  -0.025 .0199);
end ( .075  0.025 .0199);
nPoints 50;
}
xToH_3_30  {
type uniform;
axis y;
start ( .075  -0.025 .0219);
end ( .075  0.025 .0219);
nPoints 50;
}
xToH_3_31  {
type uniform;
axis y;
start ( .075  -0.025 .0239);
end ( .075  0.025 .0239);
nPoints 50;
}
xToH_3_32  {
type uniform;
axis y;
start ( .075  -0.025 .0259);
end ( .075  0.025 .0259);
nPoints 50;
}
xToH_3_33  {
type uniform;
axis y;
start ( .075  -0.025 .0279);
end ( .075  0.025 .0279);
nPoints 50;
}
xToH_3_34  {
type uniform;
axis y;
start ( .075  -0.025 .0299);
end ( .075  0.025 .0299);
nPoints 50;
}
xToH_3_35  {
type uniform;
axis y;
start ( .075  -0.025 .0319);
end ( .075  0.025 .0319);
nPoints 50;
}
xToH_3_36  {
type uniform;
axis y;
start ( .075  -0.025 .0339);
end ( .075  0.025 .0339);
nPoints 50;
}
xToH_3_37  {
type uniform;
axis y;
start ( .075  -0.025 .0359);
end ( .075  0.025 .0359);
nPoints 50;
}
xToH_3_38  {
type uniform;
axis y;
start ( .075  -0.025 .0380);
end ( .075  0.025 .0380);
nPoints 50;
}
xToH_3.5_0  {
type uniform;
axis y;
start ( .0875  -0.025 -.0380);
end ( .0875  0.025 -.0380);
nPoints 50;
}
xToH_3.5_1  {
type uniform;
axis y;
start ( .0875  -0.025 -.0361);
end ( .0875  0.025 -.0361);
nPoints 50;
}
xToH_3.5_2  {
type uniform;
axis y;
start ( .0875  -0.025 -.0341);
end ( .0875  0.025 -.0341);
nPoints 50;
}
xToH_3.5_3  {
type uniform;
axis y;
start ( .0875  -0.025 -.0321);
end ( .0875  0.025 -.0321);
nPoints 50;
}
xToH_3.5_4  {
type uniform;
axis y;
start ( .0875  -0.025 -.0301);
end ( .0875  0.025 -.0301);
nPoints 50;
}
xToH_3.5_5  {
type uniform;
axis y;
start ( .0875  -0.025 -.0281);
end ( .0875  0.025 -.0281);
nPoints 50;
}
xToH_3.5_6  {
type uniform;
axis y;
start ( .0875  -0.025 -.0261);
end ( .0875  0.025 -.0261);
nPoints 50;
}
xToH_3.5_7  {
type uniform;
axis y;
start ( .0875  -0.025 -.0241);
end ( .0875  0.025 -.0241);
nPoints 50;
}
xToH_3.5_8  {
type uniform;
axis y;
start ( .0875  -0.025 -.0221);
end ( .0875  0.025 -.0221);
nPoints 50;
}
xToH_3.5_9  {
type uniform;
axis y;
start ( .0875  -0.025 -.0201);
end ( .0875  0.025 -.0201);
nPoints 50;
}
xToH_3.5_10  {
type uniform;
axis y;
start ( .0875  -0.025 -.0181);
end ( .0875  0.025 -.0181);
nPoints 50;
}
xToH_3.5_11  {
type uniform;
axis y;
start ( .0875  -0.025 -.0161);
end ( .0875  0.025 -.0161);
nPoints 50;
}
xToH_3.5_12  {
type uniform;
axis y;
start ( .0875  -0.025 -.0141);
end ( .0875  0.025 -.0141);
nPoints 50;
}
xToH_3.5_13  {
type uniform;
axis y;
start ( .0875  -0.025 -.0121);
end ( .0875  0.025 -.0121);
nPoints 50;
}
xToH_3.5_14  {
type uniform;
axis y;
start ( .0875  -0.025 -.0101);
end ( .0875  0.025 -.0101);
nPoints 50;
}
xToH_3.5_15  {
type uniform;
axis y;
start ( .0875  -0.025 -.0081);
end ( .0875  0.025 -.0081);
nPoints 50;
}
xToH_3.5_16  {
type uniform;
axis y;
start ( .0875  -0.025 -.0061);
end ( .0875  0.025 -.0061);
nPoints 50;
}
xToH_3.5_17  {
type uniform;
axis y;
start ( .0875  -0.025 -.0041);
end ( .0875  0.025 -.0041);
nPoints 50;
}
xToH_3.5_18  {
type uniform;
axis y;
start ( .0875  -0.025 -.0021);
end ( .0875  0.025 -.0021);
nPoints 50;
}
xToH_3.5_19  {
type uniform;
axis y;
start ( .0875  -0.025 0);
end ( .0875  0.025 0);
nPoints 50;
}
xToH_3.5_20  {
type uniform;
axis y;
start ( .0875  -0.025 .0019);
end ( .0875  0.025 .0019);
nPoints 50;
}
xToH_3.5_21  {
type uniform;
axis y;
start ( .0875  -0.025 .0039);
end ( .0875  0.025 .0039);
nPoints 50;
}
xToH_3.5_22  {
type uniform;
axis y;
start ( .0875  -0.025 .0059);
end ( .0875  0.025 .0059);
nPoints 50;
}
xToH_3.5_23  {
type uniform;
axis y;
start ( .0875  -0.025 .0079);
end ( .0875  0.025 .0079);
nPoints 50;
}
xToH_3.5_24  {
type uniform;
axis y;
start ( .0875  -0.025 .0099);
end ( .0875  0.025 .0099);
nPoints 50;
}
xToH_3.5_25  {
type uniform;
axis y;
start ( .0875  -0.025 .0119);
end ( .0875  0.025 .0119);
nPoints 50;
}
xToH_3.5_26  {
type uniform;
axis y;
start ( .0875  -0.025 .0139);
end ( .0875  0.025 .0139);
nPoints 50;
}
xToH_3.5_27  {
type uniform;
axis y;
start ( .0875  -0.025 .0159);
end ( .0875  0.025 .0159);
nPoints 50;
}
xToH_3.5_28  {
type uniform;
axis y;
start ( .0875  -0.025 .0179);
end ( .0875  0.025 .0179);
nPoints 50;
}
xToH_3.5_29  {
type uniform;
axis y;
start ( .0875  -0.025 .0199);
end ( .0875  0.025 .0199);
nPoints 50;
}
xToH_3.5_30  {
type uniform;
axis y;
start ( .0875  -0.025 .0219);
end ( .0875  0.025 .0219);
nPoints 50;
}
xToH_3.5_31  {
type uniform;
axis y;
start ( .0875  -0.025 .0239);
end ( .0875  0.025 .0239);
nPoints 50;
}
xToH_3.5_32  {
type uniform;
axis y;
start ( .0875  -0.025 .0259);
end ( .0875  0.025 .0259);
nPoints 50;
}
xToH_3.5_33  {
type uniform;
axis y;
start ( .0875  -0.025 .0279);
end ( .0875  0.025 .0279);
nPoints 50;
}
xToH_3.5_34  {
type uniform;
axis y;
start ( .0875  -0.025 .0299);
end ( .0875  0.025 .0299);
nPoints 50;
}
xToH_3.5_35  {
type uniform;
axis y;
start ( .0875  -0.025 .0319);
end ( .0875  0.025 .0319);
nPoints 50;
}
xToH_3.5_36  {
type uniform;
axis y;
start ( .0875  -0.025 .0339);
end ( .0875  0.025 .0339);
nPoints 50;
}
xToH_3.5_37  {
type uniform;
axis y;
start ( .0875  -0.025 .0359);
end ( .0875  0.025 .0359);
nPoints 50;
}
xToH_3.5_38  {
type uniform;
axis y;
start ( .0875  -0.025 .0380);
end ( .0875  0.025 .0380);
nPoints 50;
}
xToH_5_0  {
type uniform;
axis y;
start ( .125  -0.025 -.0380);
end ( .125  0.025 -.0380);
nPoints 50;
}
xToH_5_1  {
type uniform;
axis y;
start ( .125  -0.025 -.0361);
end ( .125  0.025 -.0361);
nPoints 50;
}
xToH_5_2  {
type uniform;
axis y;
start ( .125  -0.025 -.0341);
end ( .125  0.025 -.0341);
nPoints 50;
}
xToH_5_3  {
type uniform;
axis y;
start ( .125  -0.025 -.0321);
end ( .125  0.025 -.0321);
nPoints 50;
}
xToH_5_4  {
type uniform;
axis y;
start ( .125  -0.025 -.0301);
end ( .125  0.025 -.0301);
nPoints 50;
}
xToH_5_5  {
type uniform;
axis y;
start ( .125  -0.025 -.0281);
end ( .125  0.025 -.0281);
nPoints 50;
}
xToH_5_6  {
type uniform;
axis y;
start ( .125  -0.025 -.0261);
end ( .125  0.025 -.0261);
nPoints 50;
}
xToH_5_7  {
type uniform;
axis y;
start ( .125  -0.025 -.0241);
end ( .125  0.025 -.0241);
nPoints 50;
}
xToH_5_8  {
type uniform;
axis y;
start ( .125  -0.025 -.0221);
end ( .125  0.025 -.0221);
nPoints 50;
}
xToH_5_9  {
type uniform;
axis y;
start ( .125  -0.025 -.0201);
end ( .125  0.025 -.0201);
nPoints 50;
}
xToH_5_10  {
type uniform;
axis y;
start ( .125  -0.025 -.0181);
end ( .125  0.025 -.0181);
nPoints 50;
}
xToH_5_11  {
type uniform;
axis y;
start ( .125  -0.025 -.0161);
end ( .125  0.025 -.0161);
nPoints 50;
}
xToH_5_12  {
type uniform;
axis y;
start ( .125  -0.025 -.0141);
end ( .125  0.025 -.0141);
nPoints 50;
}
xToH_5_13  {
type uniform;
axis y;
start ( .125  -0.025 -.0121);
end ( .125  0.025 -.0121);
nPoints 50;
}
xToH_5_14  {
type uniform;
axis y;
start ( .125  -0.025 -.0101);
end ( .125  0.025 -.0101);
nPoints 50;
}
xToH_5_15  {
type uniform;
axis y;
start ( .125  -0.025 -.0081);
end ( .125  0.025 -.0081);
nPoints 50;
}
xToH_5_16  {
type uniform;
axis y;
start ( .125  -0.025 -.0061);
end ( .125  0.025 -.0061);
nPoints 50;
}
xToH_5_17  {
type uniform;
axis y;
start ( .125  -0.025 -.0041);
end ( .125  0.025 -.0041);
nPoints 50;
}
xToH_5_18  {
type uniform;
axis y;
start ( .125  -0.025 -.0021);
end ( .125  0.025 -.0021);
nPoints 50;
}
xToH_5_19  {
type uniform;
axis y;
start ( .125  -0.025 0);
end ( .125  0.025 0);
nPoints 50;
}
xToH_5_20  {
type uniform;
axis y;
start ( .125  -0.025 .0019);
end ( .125  0.025 .0019);
nPoints 50;
}
xToH_5_21  {
type uniform;
axis y;
start ( .125  -0.025 .0039);
end ( .125  0.025 .0039);
nPoints 50;
}
xToH_5_22  {
type uniform;
axis y;
start ( .125  -0.025 .0059);
end ( .125  0.025 .0059);
nPoints 50;
}
xToH_5_23  {
type uniform;
axis y;
start ( .125  -0.025 .0079);
end ( .125  0.025 .0079);
nPoints 50;
}
xToH_5_24  {
type uniform;
axis y;
start ( .125  -0.025 .0099);
end ( .125  0.025 .0099);
nPoints 50;
}
xToH_5_25  {
type uniform;
axis y;
start ( .125  -0.025 .0119);
end ( .125  0.025 .0119);
nPoints 50;
}
xToH_5_26  {
type uniform;
axis y;
start ( .125  -0.025 .0139);
end ( .125  0.025 .0139);
nPoints 50;
}
xToH_5_27  {
type uniform;
axis y;
start ( .125  -0.025 .0159);
end ( .125  0.025 .0159);
nPoints 50;
}
xToH_5_28  {
type uniform;
axis y;
start ( .125  -0.025 .0179);
end ( .125  0.025 .0179);
nPoints 50;
}
xToH_5_29  {
type uniform;
axis y;
start ( .125  -0.025 .0199);
end ( .125  0.025 .0199);
nPoints 50;
}
xToH_5_30  {
type uniform;
axis y;
start ( .125  -0.025 .0219);
end ( .125  0.025 .0219);
nPoints 50;
}
xToH_5_31  {
type uniform;
axis y;
start ( .125  -0.025 .0239);
end ( .125  0.025 .0239);
nPoints 50;
}
xToH_5_32  {
type uniform;
axis y;
start ( .125  -0.025 .0259);
end ( .125  0.025 .0259);
nPoints 50;
}
xToH_5_33  {
type uniform;
axis y;
start ( .125  -0.025 .0279);
end ( .125  0.025 .0279);
nPoints 50;
}
xToH_5_34  {
type uniform;
axis y;
start ( .125  -0.025 .0299);
end ( .125  0.025 .0299);
nPoints 50;
}
xToH_5_35  {
type uniform;
axis y;
start ( .125  -0.025 .0319);
end ( .125  0.025 .0319);
nPoints 50;
}
xToH_5_36  {
type uniform;
axis y;
start ( .125  -0.025 .0339);
end ( .125  0.025 .0339);
nPoints 50;
}
xToH_5_37  {
type uniform;
axis y;
start ( .125  -0.025 .0359);
end ( .125  0.025 .0359);
nPoints 50;
}
xToH_5_38  {
type uniform;
axis y;
start ( .125  -0.025 .0380);
end ( .125  0.025 .0380);
nPoints 50;
}
xToH_5.4_0  {
type uniform;
axis y;
start ( .1350  -0.025 -.0380);
end ( .1350  0.025 -.0380);
nPoints 50;
}
xToH_5.4_1  {
type uniform;
axis y;
start ( .1350  -0.025 -.0361);
end ( .1350  0.025 -.0361);
nPoints 50;
}
xToH_5.4_2  {
type uniform;
axis y;
start ( .1350  -0.025 -.0341);
end ( .1350  0.025 -.0341);
nPoints 50;
}
xToH_5.4_3  {
type uniform;
axis y;
start ( .1350  -0.025 -.0321);
end ( .1350  0.025 -.0321);
nPoints 50;
}
xToH_5.4_4  {
type uniform;
axis y;
start ( .1350  -0.025 -.0301);
end ( .1350  0.025 -.0301);
nPoints 50;
}
xToH_5.4_5  {
type uniform;
axis y;
start ( .1350  -0.025 -.0281);
end ( .1350  0.025 -.0281);
nPoints 50;
}
xToH_5.4_6  {
type uniform;
axis y;
start ( .1350  -0.025 -.0261);
end ( .1350  0.025 -.0261);
nPoints 50;
}
xToH_5.4_7  {
type uniform;
axis y;
start ( .1350  -0.025 -.0241);
end ( .1350  0.025 -.0241);
nPoints 50;
}
xToH_5.4_8  {
type uniform;
axis y;
start ( .1350  -0.025 -.0221);
end ( .1350  0.025 -.0221);
nPoints 50;
}
xToH_5.4_9  {
type uniform;
axis y;
start ( .1350  -0.025 -.0201);
end ( .1350  0.025 -.0201);
nPoints 50;
}
xToH_5.4_10  {
type uniform;
axis y;
start ( .1350  -0.025 -.0181);
end ( .1350  0.025 -.0181);
nPoints 50;
}
xToH_5.4_11  {
type uniform;
axis y;
start ( .1350  -0.025 -.0161);
end ( .1350  0.025 -.0161);
nPoints 50;
}
xToH_5.4_12  {
type uniform;
axis y;
start ( .1350  -0.025 -.0141);
end ( .1350  0.025 -.0141);
nPoints 50;
}
xToH_5.4_13  {
type uniform;
axis y;
start ( .1350  -0.025 -.0121);
end ( .1350  0.025 -.0121);
nPoints 50;
}
xToH_5.4_14  {
type uniform;
axis y;
start ( .1350  -0.025 -.0101);
end ( .1350  0.025 -.0101);
nPoints 50;
}
xToH_5.4_15  {
type uniform;
axis y;
start ( .1350  -0.025 -.0081);
end ( .1350  0.025 -.0081);
nPoints 50;
}
xToH_5.4_16  {
type uniform;
axis y;
start ( .1350  -0.025 -.0061);
end ( .1350  0.025 -.0061);
nPoints 50;
}
xToH_5.4_17  {
type uniform;
axis y;
start ( .1350  -0.025 -.0041);
end ( .1350  0.025 -.0041);
nPoints 50;
}
xToH_5.4_18  {
type uniform;
axis y;
start ( .1350  -0.025 -.0021);
end ( .1350  0.025 -.0021);
nPoints 50;
}
xToH_5.4_19  {
type uniform;
axis y;
start ( .1350  -0.025 0);
end ( .1350  0.025 0);
nPoints 50;
}
xToH_5.4_20  {
type uniform;
axis y;
start ( .1350  -0.025 .0019);
end ( .1350  0.025 .0019);
nPoints 50;
}
xToH_5.4_21  {
type uniform;
axis y;
start ( .1350  -0.025 .0039);
end ( .1350  0.025 .0039);
nPoints 50;
}
xToH_5.4_22  {
type uniform;
axis y;
start ( .1350  -0.025 .0059);
end ( .1350  0.025 .0059);
nPoints 50;
}
xToH_5.4_23  {
type uniform;
axis y;
start ( .1350  -0.025 .0079);
end ( .1350  0.025 .0079);
nPoints 50;
}
xToH_5.4_24  {
type uniform;
axis y;
start ( .1350  -0.025 .0099);
end ( .1350  0.025 .0099);
nPoints 50;
}
xToH_5.4_25  {
type uniform;
axis y;
start ( .1350  -0.025 .0119);
end ( .1350  0.025 .0119);
nPoints 50;
}
xToH_5.4_26  {
type uniform;
axis y;
start ( .1350  -0.025 .0139);
end ( .1350  0.025 .0139);
nPoints 50;
}
xToH_5.4_27  {
type uniform;
axis y;
start ( .1350  -0.025 .0159);
end ( .1350  0.025 .0159);
nPoints 50;
}
xToH_5.4_28  {
type uniform;
axis y;
start ( .1350  -0.025 .0179);
end ( .1350  0.025 .0179);
nPoints 50;
}
xToH_5.4_29  {
type uniform;
axis y;
start ( .1350  -0.025 .0199);
end ( .1350  0.025 .0199);
nPoints 50;
}
xToH_5.4_30  {
type uniform;
axis y;
start ( .1350  -0.025 .0219);
end ( .1350  0.025 .0219);
nPoints 50;
}
xToH_5.4_31  {
type uniform;
axis y;
start ( .1350  -0.025 .0239);
end ( .1350  0.025 .0239);
nPoints 50;
}
xToH_5.4_32  {
type uniform;
axis y;
start ( .1350  -0.025 .0259);
end ( .1350  0.025 .0259);
nPoints 50;
}
xToH_5.4_33  {
type uniform;
axis y;
start ( .1350  -0.025 .0279);
end ( .1350  0.025 .0279);
nPoints 50;
}
xToH_5.4_34  {
type uniform;
axis y;
start ( .1350  -0.025 .0299);
end ( .1350  0.025 .0299);
nPoints 50;
}
xToH_5.4_35  {
type uniform;
axis y;
start ( .1350  -0.025 .0319);
end ( .1350  0.025 .0319);
nPoints 50;
}
xToH_5.4_36  {
type uniform;
axis y;
start ( .1350  -0.025 .0339);
end ( .1350  0.025 .0339);
nPoints 50;
}
xToH_5.4_37  {
type uniform;
axis y;
start ( .1350  -0.025 .0359);
end ( .1350  0.025 .0359);
nPoints 50;
}
xToH_5.4_38  {
type uniform;
axis y;
start ( .1350  -0.025 .0380);
end ( .1350  0.025 .0380);
nPoints 50;
}
xToH_7_0  {
type uniform;
axis y;
start ( .175  -0.025 -.0380);
end ( .175  0.025 -.0380);
nPoints 50;
}
xToH_7_1  {
type uniform;
axis y;
start ( .175  -0.025 -.0361);
end ( .175  0.025 -.0361);
nPoints 50;
}
xToH_7_2  {
type uniform;
axis y;
start ( .175  -0.025 -.0341);
end ( .175  0.025 -.0341);
nPoints 50;
}
xToH_7_3  {
type uniform;
axis y;
start ( .175  -0.025 -.0321);
end ( .175  0.025 -.0321);
nPoints 50;
}
xToH_7_4  {
type uniform;
axis y;
start ( .175  -0.025 -.0301);
end ( .175  0.025 -.0301);
nPoints 50;
}
xToH_7_5  {