/*--------------------------------*- C++ -*----------------------------------*\
| =========                 |                                                 |
| \\      /  F ield         | OpenFOAM: The Open Source CFD Toolbox           |
|  \\    /   O peration     | Version:  1.5                                   |
|   \\  /    A nd           | Web:      http://www.OpenFOAM.org               |
|    \\/     M anipulation  |                                                 |
\*---------------------------------------------------------------------------*/
FoamFile
{
    version     2.0;
    format      ascii;
    class       dictionary;
    location    "constant";
    object      CO2;
}
// * * * * * * * * * * * * * * * * * * * * * * * * * * * * * * * * * * * * * //

tableData (
3 20 20 50 
0 0 -1.71666e+06 
0.0526316 0.0526316 33301.8 
10(-7.11997e-15 0 1.19935 290 0.0249778 1040.8 1.70146e-05 0 0 2.18881e-08)
10(-7.11997e-15 -4.1364e-17 1.19935 290 0.0249778 1040.8 1.70146e-05 0 0 2.18881e-08)
10(-7.11997e-15 -8.27281e-17 1.19935 290 0.0249778 1040.8 1.70146e-05 0 0 2.18881e-08)
10(-7.11997e-15 -1.24092e-16 1.19935 290 0.0249778 1040.8 1.70146e-05 0 0 2.18881e-08)
10(-7.11997e-15 -1.65456e-16 1.19935 290 0.0249778 1040.8 1.70146e-05 0 0 2.18881e-08)
10(-7.11997e-15 -2.0682e-16 1.19935 290 0.0249778 1040.8 1.70146e-05 0 0 2.18881e-08)
10(-7.11997e-15 -2.48184e-16 1.19935 290 0.0249778 1040.8 1.70146e-05 0 0 2.18881e-08)
10(-7.11997e-15 -2.89548e-16 1.19935 290 0.0249778 1040.8 1.70146e-05 0 0 2.18881e-08)
10(-7.11997e-15 -3.30912e-16 1.19935 290 0.0249778 1040.8 1.70146e-05 0 0 2.18881e-08)
10(-7.11997e-15 -3.72276e-16 1.19935 290 0.0249778 1040.8 1.70146e-05 0 0 2.18881e-08)
10(-7.11997e-15 -4.1364e-16 1.19935 290 0.0249778 1040.8 1.70146e-05 0 0 2.18881e-08)
10(-7.11997e-15 -4.55004e-16 1.19935 290 0.0249778 1040.8 1.70146e-05 0 0 2.18881e-08)
10(-7.11997e-15 -4.96368e-16 1.19935 290 0.0249778 1040.8 1.70146e-05 0 0 2.18881e-08)
10(-7.11997e-15 -5.37732e-16 1.19935 290 0.0249778 1040.8 1.70146e-05 0 0 2.18881e-08)
10(-7.11997e-15 -5.79096e-16 1.19935 290 0.0249778 1040.8 1.70146e-05 0 0 2.18881e-08)
10(-7.11997e-15 -6.2046e-16 1.19935 290 0.0249778 1040.8 1.70146e-05 0 0 2.18881e-08)
10(-7.11997e-15 -6.61824e-16 1.19935 290 0.0249778 1040.8 1.70146e-05 0 0 2.18881e-08)
10(-7.11997e-15 -7.03188e-16 1.19935 290 0.0249778 1040.8 1.70146e-05 0 0 2.18881e-08)
10(3.78609e-08 3.95921e-09 1.15441 301.811 0.0257832 1043.82 1.75579e-05 0 0 3.03453)
10(9.10363e-05 1.00488e-05 0.929492 373.72 0.0306905 1060.36 2.07549e-05 0 0 0.071422)
10(-7.11997e-15 0 1.19935 290 0.0249778 1040.8 1.70146e-05 0 0 2.18881e-08)
10(-7.14912e-15 -4.08313e-17 1.20426 291.187 0.0250801 1045.06 1.70843e-05 0 0 2.19777e-08)
10(-7.14854e-15 -8.24358e-17 1.20416 291.164 0.025078 1044.98 1.70829e-05 0 0 2.19759e-08)
10(-7.14854e-15 -1.24049e-16 1.20416 291.163 0.025078 1044.98 1.70829e-05 0 0 2.19759e-08)
10(-7.14853e-15 -1.65661e-16 1.20416 291.163 0.025078 1044.98 1.70829e-05 0 0 2.19759e-08)
10(-7.14825e-15 -2.07245e-16 1.20416 291.163 0.025078 1044.98 1.70829e-05 0 0 2.19759e-08)
10(-7.13272e-15 -2.47204e-16 1.20416 291.163 0.025078 1044.98 1.70829e-05 0 0 2.19765e-08)
10(-6.46049e-15 -2.1718e-16 1.20416 291.163 0.025078 1044.98 1.70829e-05 0 0 2.22233e-08)
10(1.73533e-14 2.28042e-15 1.20416 291.163 0.025078 1044.98 1.70829e-05 0 0 2.79432e-08)
10(7.06768e-13 7.57951e-14 1.20416 291.163 0.025078 1044.98 1.70829e-05 0 0 1.39939e-07)
10(1.71555e-11 1.832e-12 1.20416 291.163 0.025078 1044.98 1.70829e-05 0 0 1.95003e-06)
10(3.41716e-10 3.65146e-11 1.20416 291.164 0.025078 1044.98 1.70829e-05 0 0 2.62125e-05)
10(5.63221e-09 6.02422e-10 1.20416 291.164 0.0250781 1044.98 1.70829e-05 0 0 0.000296179)
10(7.64355e-08 8.18501e-09 1.20414 291.17 0.0250785 1044.98 1.70832e-05 0 0 0.00278153)
10(8.44203e-07 9.0526e-08 1.20383 291.253 0.0250845 1044.99 1.70872e-05 0 0 0.0215478)
10(7.42647e-06 7.97694e-07 1.20205 291.743 0.0251176 1045.12 1.71093e-05 0 0 0.135742)
10(5.00246e-05 5.38437e-06 1.19398 293.993 0.0252711 1045.69 1.72118e-05 0 0 0.674053)
10(0.000238303 2.57176e-05 1.16323 302.882 0.0258778 1047.84 1.76146e-05 0 0 2.4584)
10(0.000647891 7.0178e-05 1.07945 328.008 0.0275934 1053.87 1.87441e-05 0 0 5.323)
10(9.10363e-05 1.00488e-05 0.929492 373.72 0.0306905 1060.36 2.07549e-05 0 0 0.071422)
10(-7.11997e-15 0 1.19935 290 0.0249778 1040.8 1.70146e-05 0 0 2.18881e-08)
10(-6.45105e-15 3.34089e-17 1.20388 291.095 0.0250721 1044.73 1.70789e-05 0 0 2.20465e-08)
10(7.04899e-15 1.43419e-15 1.20415 291.16 0.0250777 1044.96 1.70827e-05 0 0 2.32615e-08)
10(1.77549e-13 1.96145e-14 1.20416 291.163 0.025078 1044.98 1.70829e-05 0 0 3.59187e-08)
10(1.86714e-12 2.0023e-13 1.20416 291.163 0.025078 1044.98 1.70829e-05 0 0 1.40091e-07)
10(1.5942e-11 1.70588e-12 1.20416 291.163 0.025078 1044.98 1.70829e-05 0 0 8.62172e-07)
10(1.17965e-10 1.26261e-11 1.20416 291.164 0.025078 1044.98 1.70829e-05 0 0 5.22641e-06)
10(7.74393e-10 8.2931e-11 1.20416 291.164 0.025078 1044.98 1.70829e-05 0 0 2.8696e-05)
10(4.56929e-09 4.89642e-10 1.20416 291.164 0.025078 1044.98 1.70829e-05 0 0 0.000142427)
10(2.4427e-08 2.61941e-09 1.20416 291.165 0.0250781 1044.98 1.70829e-05 0 0 0.000643025)
10(1.18846e-07 1.2754e-08 1.20413 291.172 0.0250786 1044.98 1.70832e-05 0 0 0.00265367)
10(5.27152e-07 5.66194e-08 1.204 291.207 0.025081 1044.98 1.70848e-05 0 0 0.0100361)
10(2.12967e-06 2.28953e-07 1.20362 291.313 0.0250882 1045.01 1.70897e-05 0 0 0.0347846)
10(7.80495e-06 8.39957e-07 1.20246 291.624 0.0251094 1045.09 1.71043e-05 0 0 0.110158)
10(2.57445e-05 2.77382e-06 1.19916 292.544 0.0251722 1045.32 1.71457e-05 0 0 0.316481)
10(7.52581e-05 8.11956e-06 1.19061 294.97 0.0253378 1045.91 1.7257e-05 0 0 0.813279)
10(0.00018971 2.05e-05 1.1706 300.782 0.0257345 1047.3 1.75182e-05 0 0 1.8185)
10(0.000388756 4.20891e-05 1.12885 313.287 0.0265881 1050.27 1.80808e-05 0 0 3.32834)
10(0.000546265 5.92941e-05 1.05155 336.958 0.0282023 1055.59 1.91388e-05 0 0 4.14491)
10(9.10363e-05 1.00488e-05 0.929492 373.72 0.0306905 1060.36 2.07549e-05 0 0 0.071422)
10(-7.11997e-15 0 1.19935 290 0.0249778 1040.8 1.70146e-05 0 0 2.18881e-08)
10(8.4397e-12 9.04827e-13 1.20324 290.94 0.0250588 1044.17 1.70698e-05 0 0 3.11803e-07)
10(6.91458e-11 7.41102e-12 1.20399 291.122 0.0250744 1044.83 1.70804e-05 0 0 2.15153e-06)
10(3.90242e-10 4.18409e-11 1.20413 291.156 0.0250774 1044.95 1.70824e-05 0 0 1.0822e-05)
10(1.82239e-09 1.9548e-10 1.20416 291.162 0.0250779 1044.97 1.70828e-05 0 0 4.54176e-05)
10(7.48903e-09 8.03714e-10 1.20416 291.164 0.025078 1044.98 1.70829e-05 0 0 0.000168235)
10(2.7885e-08 2.99416e-09 1.20415 291.166 0.0250782 1044.98 1.7083e-05 0 0 0.000565918)
10(9.56157e-08 1.02725e-08 1.20414 291.17 0.0250784 1044.98 1.70831e-05 0 0 0.00175715)
10(3.04873e-07 3.27735e-08 1.2041 291.185 0.0250795 1044.98 1.70839e-05 0 0 0.00508622)
10(9.09241e-07 9.78049e-08 1.20395 291.223 0.0250821 1044.99 1.70856e-05 0 0 0.0138086)
10(2.54442e-06 2.73885e-07 1.20361 291.318 0.0250885 1045.01 1.70899e-05 0 0 0.0352835)
10(6.68795e-06 7.20438e-07 1.20282 291.536 0.0251035 1045.07 1.70998e-05 0 0 0.0849557)
10(1.64979e-05 1.77861e-06 1.20105 292.028 0.0251377 1045.19 1.71226e-05 0 0 0.1926)
10(3.80399e-05 4.10466e-06 1.19727 293.116 0.0252113 1045.45 1.71715e-05 0 0 0.409675)
10(8.14357e-05 8.79591e-06 1.18964 295.301 0.0253604 1045.98 1.72703e-05 0 0 0.811908)
10(0.000159818 1.72811e-05 1.17516 299.575 0.0256521 1047 1.74631e-05 0 0 1.4796)
10(0.000280668 3.03872e-05 1.14879 307.428 0.026188 1048.85 1.78164e-05 0 0 2.41713)
10(0.000418669 4.53976e-05 1.10399 320.966 0.0271114 1051.92 1.8423e-05 0 0 3.34476)
10(0.000455699 4.95202e-05 1.03314 342.628 0.0285863 1056.36 1.93876e-05 0 0 3.29242)
10(9.10363e-05 1.00488e-05 0.929492 373.72 0.0306905 1060.36 2.07549e-05 0 0 0.071422)
10(-7.11997e-15 0 1.19935 290 0.0249778 1040.8 1.70146e-05 0 0 2.18881e-08)
10(9.85747e-10 1.05857e-10 1.20266 290.8 0.0250467 1043.67 1.70615e-05 0 0 1.97346e-05)
10(5.13484e-09 5.51632e-10 1.2037 291.053 0.0250685 1044.58 1.70764e-05 0 0 9.57629e-05)
10(1.90716e-08 2.0497e-09 1.20402 291.132 0.0250753 1044.86 1.7081e-05 0 0 0.000331978)
10(6.02103e-08 6.47383e-09 1.20411 291.158 0.0250775 1044.94 1.70825e-05 0 0 0.000979633)
10(1.7108e-07 1.8403e-08 1.20411 291.172 0.0250785 1044.97 1.70832e-05 0 0 0.00260543)
10(4.49159e-07 4.83389e-08 1.20406 291.191 0.0250799 1044.98 1.70841e-05 0 0 0.00641237)
10(1.10527e-06 1.19011e-07 1.20393 291.229 0.0250824 1044.99 1.70858e-05 0 0 0.0148151)
10(2.57057e-06 2.76936e-07 1.20364 291.297 0.0250871 1045.01 1.70889e-05 0 0 0.0324039)
10(5.67959e-06 6.12231e-07 1.20308 291.468 0.0250988 1045.05 1.70967e-05 0 0 0.0674325)
10(1.1946e-05 1.28851e-06 1.20195 291.787 0.0251206 1045.12 1.71112e-05 0 0 0.13385)
10(2.39425e-05 2.58414e-06 1.19983 292.394 0.025162 1045.28 1.71387e-05 0 0 0.253606)
10(4.56724e-05 4.93296e-06 1.19597 293.496 0.0252372 1045.54 1.71885e-05 0 0 0.458117)
10(8.26482e-05 8.93345e-06 1.18918 295.468 0.0253718 1046.01 1.72776e-05 0 0 0.786217)
10(0.000140963 1.52495e-05 1.17777 298.851 0.0256027 1046.83 1.74311e-05 0 0 1.27319)
10(0.000223965 2.42515e-05 1.15897 304.45 0.0259847 1048.12 1.76819e-05 0 0 1.9212)
10(0.000324207 3.51437e-05 1.12933 313.361 0.0265925 1050.15 1.80814e-05 0 0 2.63647)
10(0.000407545 4.42359e-05 1.0845 326.975 0.0275202 1053.08 1.86896e-05 0 0 3.11618)
10(0.000387083 4.21012e-05 1.01945 346.768 0.0288662 1056.84 1.95689e-05 0 0 2.67777)
10(9.10363e-05 1.00488e-05 0.929492 373.72 0.0306905 1060.36 2.07549e-05 0 0 0.071422)
10(-7.11997e-15 0 1.19935 290 0.0249778 1040.8 1.70146e-05 0 0 2.18881e-08)
10(1.73093e-08 1.86235e-09 1.20217 290.684 0.0250367 1043.25 1.70547e-05 0 0 0.000256819)
10(6.89416e-08 7.42029e-09 1.20334 290.973 0.0250616 1044.28 1.70717e-05 0 0 0.000974835)
10(1.99268e-07 2.14557e-08 1.2038 291.098 0.0250722 1044.7 1.70789e-05 0 0 0.00268775)
10(4.96749e-07 5.35076e-08 1.20394 291.162 0.0250774 1044.88 1.70824e-05 0 0 0.00639725)
10(1.12853e-06 1.21642e-07 1.20389 291.215 0.0250813 1044.95 1.7085e-05 0 0 0.0138899)
10(2.39596e-06 2.58302e-07 1.20369 291.289 0.0250865 1044.99 1.70885e-05 0 0 0.0282026)
10(4.81475e-06 5.19303e-07 1.20326 291.414 0.0250944 1045.03 1.70937e-05 0 0 0.0542678)
10(9.2304e-06 9.96041e-07 1.20247 291.64 0.0251106 1045.09 1.71045e-05 0 0 0.0997165)
10(1.69562e-05 1.83066e-06 1.2011 292.035 0.0251375 1045.19 1.71224e-05 0 0 0.175738)
10(2.81122e-05 3.23135e-06 1.19877 292.699 0.0251828 1045.35 1.71524e-05 0 0 0.297709)
10(5.07063e-05 5.48059e-06 1.19494 293.81 0.0252586 1045.61 1.72026e-05 0 0 0.484973)
10(8.24883e-05 8.92125e-06 1.18888 295.616 0.0253819 1046.04 1.72834e-05 0 0 0.75868)
10(0.000128372 1.38929e-05 1.17934 298.423 0.0255734 1046.7 1.74105e-05 0 0 1.13577)
10(0.000189952 2.05724e-05 1.1648 302.753 0.0258688 1047.71 1.76051e-05 0 0 1.61626)
10(0.000264323 2.86504e-05 1.14325 309.218 0.0263098 1049.18 1.78951e-05 0 0 2.1598)
10(0.000338775 3.67554e-05 1.11212 318.623 0.0269508 1051.23 1.83158e-05 0 0 2.64698)
10(0.000382392 4.15384e-05 1.06838 331.9 0.0278547 1053.94 1.89075e-05 0 0 2.82154)
10(0.000334381 3.63979e-05 1.00863 350.017 0.0290857 1057.19 1.97111e-05 0 0 2.21516)
10(9.10363e-05 1.00488e-05 0.929492 373.72 0.0306905 1060.36 2.07549e-05 0 0 0.071422)
10(-7.11997e-15 0 1.19935 290 0.0249778 1040.8 1.70146e-05 0 0 2.18881e-08)
10(1.1597e-07 1.24969e-08 1.20176 290.594 0.0250289 1042.91 1.70494e-05 0 0 0.00143133)
10(3.87156e-07 4.17336e-08 1.20293 290.904 0.0250553 1043.97 1.70674e-05 0 0 0.00461493)
10(9.47329e-07 1.02153e-07 1.20343 291.08 0.0250699 1044.51 1.70773e-05 0 0 0.0109153)
10(2.01673e-06 2.17549e-07 1.20353 291.207 0.0250798 1044.78 1.7084e-05 0 0 0.0224744)
10(3.94278e-06 4.25478e-07 1.20332 291.339 0.0250894 1044.92 1.70904e-05 0 0 0.0425206)
10(7.25179e-06 7.82873e-07 1.20279 291.524 0.0251024 1045.02 1.70991e-05 0 0 0.0757257)
10(1.27082e-05 1.3725e-06 1.20184 291.813 0.0251223 1045.11 1.71122e-05 0 0 0.128564)
10(2.13725e-05 2.30924e-06 1.20028 292.272 0.0251533 1045.23 1.71328e-05 0 0 0.20958)
10(3.46368e-05 3.74413e-06 1.19782 292.983 0.0252022 1045.41 1.71651e-05 0 0 0.329369)
10(5.42028e-05 5.86198e-06 1.1941 294.093 0.0252779 1045.67 1.72148e-05 0 0 0.499999)
10(8.19376e-05 8.86603e-06 1.18848 295.742 0.0253904 1046.07 1.72895e-05 0 0 0.733365)
10(0.000119512 1.29388e-05 1.18021 298.191 0.0255576 1046.64 1.73998e-05 0 0 1.0378)
10(0.000167673 1.81637e-05 1.16832 301.735 0.0257993 1047.46 1.7559e-05 0 0 1.41199)
10(0.000224969 2.43863e-05 1.15154 306.765 0.0261423 1048.59 1.77846e-05 0 0 1.83489)
10(0.000285666 3.09886e-05 1.1283 313.768 0.0266197 1050.13 1.8098e-05 0 0 2.2504)
10(0.000336633 3.65496e-05 1.09673 323.32 0.0272703 1052.13 1.85244e-05 0 0 2.54524)
10(0.000353012 3.83732e-05 1.05466 336.07 0.0281377 1054.61 1.90918e-05 0 0 2.51985)
10(0.000292788 3.18946e-05 0.999735 352.681 0.0292657 1057.48 1.98279e-05 0 0 1.85368)
10(9.10363e-05 1.00488e-05 0.929492 373.72 0.0306905 1060.36 2.07549e-05 0 0 0.071422)
10(-7.11997e-15 0 1.19935 290 0.0249778 1040.8 1.70146e-05 0 0 2.18881e-08)
10(4.44026e-07 4.79103e-08 1.20137 290.531 0.0250232 1042.63 1.70455e-05 0 0 0.00484484)
10(1.30832e-06 1.41211e-07 1.20242 290.867 0.0250513 1043.68 1.70646e-05 0 0 0.0139123)
10(2.84424e-06 3.07086e-07 1.20282 291.111 0.0250708 1044.29 1.70778e-05 0 0 0.0294858)
10(5.40969e-06 5.84263e-07 1.20273 291.335 0.0250878 1044.66 1.70892e-05 0 0 0.0546924)
10(9.49641e-06 1.026e-06 1.2022 291.6 0.0251068 1044.89 1.71019e-05 0 0 0.0936616)
10(1.57551e-05 1.7028e-06 1.20116 291.957 0.0251317 1045.06 1.71184e-05 0 0 0.151632)
10(2.50109e-05 2.70416e-06 1.19948 292.478 0.0251674 1045.24 1.71421e-05 0 0 0.234947)
10(3.8257e-05 4.13793e-06 1.19697 293.243 0.0252198 1045.45 1.71767e-05 0 0 0.350835)
10(5.6608e-05 6.12532e-06 1.19327 294.333 0.0252942 1045.72 1.72259e-05 0 0 0.506828)
10(8.11845e-05 8.78844e-06 1.188 295.896 0.0254009 1046.09 1.72963e-05 0 0 0.709623)
10(0.00011289 1.22263e-05 1.18062 298.092 0.0255507 1046.6 1.7395e-05 0 0 0.963112)
10(0.00015203 1.64734e-05 1.17046 301.122 0.0257575 1047.3 1.75311e-05 0 0 1.26523)
10(0.000197703 2.14337e-05 1.1567 305.246 0.0260386 1048.22 1.77161e-05 0 0 1.60321)
10(0.000246889 2.6782e-05 1.13833 310.773 0.0264154 1049.44 1.79635e-05 0 0 1.9468)
10(0.000293159 3.18231e-05 1.11416 318.071 0.0269125 1050.98 1.82895e-05 0 0 2.23893)
10(0.000324926 3.53011e-05 1.08281 327.557 0.0275582 1052.89 1.87123e-05 0 0 2.38369)
10(0.000323227 3.51581e-05 1.04272 339.689 0.028383 1055.17 1.92515e-05 0 0 2.2315)
10(0.000259129 2.82494e-05 0.992207 354.934 0.029418 1057.73 1.99266e-05 0 0 1.56267)
10(9.10363e-05 1.00488e-05 0.929492 373.72 0.0306905 1060.36 2.07549e-05 0 0 0.071422)
10(-7.11997e-15 0 1.19935 290 0.0249778 1040.8 1.70146e-05 0 0 2.18881e-08)
10(1.19042e-06 1.2859e-07 1.20096 290.503 0.02502 1042.4 1.70433e-05 0 0 0.0118992)
10(3.19872e-06 3.45627e-07 1.20174 290.887 0.0250512 1043.42 1.70644e-05 0 0 0.0313463)
10(6.36791e-06 6.88262e-07 1.20188 291.229 0.0250777 1044.09 1.70822e-05 0 0 0.0611894)
10(1.11324e-05 1.20359e-06 1.20144 291.595 0.0251046 1044.54 1.71002e-05 0 0 0.104907)
10(1.80238e-05 1.94925e-06 1.20041 292.045 0.0251365 1044.87 1.71214e-05 0 0 0.166589)
10(2.76663e-05 2.99305e-06 1.19868 292.636 0.0251775 1045.14 1.71486e-05 0 0 0.250824)
10(4.07566e-05 4.41068e-06 1.19611 293.446 0.0252332 1045.41 1.71854e-05 0 0 0.362445)
10(5.80168e-05 6.2808e-06 1.19246 294.553 0.025309 1045.72 1.72355e-05 0 0 0.506052)
10(8.0111e-05 8.67589e-06 1.18745 296.059 0.0254118 1046.09 1.73033e-05 0 0 0.685254)
10(0.000107506 1.16473e-05 1.18068 298.081 0.0255499 1046.57 1.73943e-05 0 0 0.901487)
10(0.000140263 1.52025e-05 1.17171 300.767 0.0257331 1047.19 1.75148e-05 0 0 1.15231)
10(0.000177723 1.92712e-05 1.15996 304.292 0.0259734 1047.98 1.76729e-05 0 0 1.429)
10(0.000218081 2.36591e-05 1.14476 308.863 0.026285 1048.98 1.78775e-05 0 0 1.71336)
10(0.0002578 2.79837e-05 1.12534 314.719 0.026684 1050.23 1.81392e-05 0 0 1.97343)
10(0.000290856 3.15926e-05 1.10079 322.135 0.0271889 1051.74 1.847e-05 0 0 2.15822)
10(0.000307786 3.34592e-05 1.0701 331.416 0.0278202 1053.55 1.88831e-05 0 0 2.19122)
10(0.000294559 3.20602e-05 1.03213 342.886 0.0285997 1055.64 1.93925e-05 0 0 1.96292)
10(0.000231308 2.52359e-05 0.985679 356.881 0.0295496 1057.95 2.0012e-05 0 0 1.32277)
10(9.10363e-05 1.00488e-05 0.929492 373.72 0.0306905 1060.36 2.07549e-05 0 0 0.071422)
10(-7.11997e-15 0 1.19935 290 0.0249778 1040.8 1.70146e-05 0 0 2.18881e-08)
10(2.50403e-06 2.70756e-07 1.20047 290.518 0.02502 1042.21 1.70432e-05 0 0 0.023433)
10(6.26954e-06 6.78087e-07 1.20084 290.987 0.0250567 1043.2 1.70679e-05 0 0 0.0577592)
10(1.16625e-05 1.2617e-06 1.20053 291.468 0.025093 1043.9 1.70922e-05 0 0 0.105777)
10(1.91004e-05 2.06692e-06 1.19954 292.021 0.0251326 1044.43 1.71186e-05 0 0 0.170553)
10(2.904e-05 3.14341e-06 1.19781 292.706 0.0251807 1044.86 1.71505e-05 0 0 0.25528)
10(4.19551e-05 4.54272e-06 1.19523 293.583 0.0252415 1045.24 1.71907e-05 0 0 0.363052)
10(5.82978e-05 6.31415e-06 1.19164 294.723 0.0253199 1045.62 1.72424e-05 0 0 0.496509)
10(7.844e-05 8.49844e-06 1.18681 296.205 0.0254213 1046.03 1.73093e-05 0 0 0.657336)
10(0.000102587 1.11184e-05 1.18049 298.12 0.0255522 1046.51 1.73956e-05 0 0 0.845549)
10(0.000130659 1.41659e-05 1.17234 300.576 0.0257198 1047.1 1.75058e-05 0 0 1.05854)
10(0.000162125 1.75841e-05 1.16197 303.697 0.0259327 1047.8 1.76458e-05 0 0 1.28984)
10(0.000195789 2.12441e-05 1.14892 307.625 0.0262004 1048.67 1.78216e-05 0 0 1.52748)
10(0.00022951 2.49146e-05 1.13268 312.523 0.0265341 1049.71 1.80405e-05 0 0 1.75197)
10(0.00025986 2.82242e-05 1.11264 318.573 0.0269461 1050.96 1.83105e-05 0 0 1.93388)
10(0.000281692 3.06152e-05 1.08812 325.979 0.02745 1052.43 1.86405e-05 0 0 2.03084)
10(0.000287645 3.12885e-05 1.05838 334.961 0.0280608 1054.13 1.90399e-05 0 0 1.98419)
10(0.000267569 2.91417e-05 1.02262 345.752 0.0287939 1056.05 1.95188e-05 0 0 1.71521)
10(0.000207902 2.27003e-05 0.979952 358.593 0.0296654 1058.15 2.00872e-05 0 0 1.12115)
10(9.10363e-05 1.00488e-05 0.929492 373.72 0.0306905 1060.36 2.07549e-05 0 0 0.071422)
10(-7.11997e-15 0 1.19935 290 0.0249778 1040.8 1.70146e-05 0 0 2.18881e-08)
10(4.42285e-06 4.7866e-07 1.19987 290.586 0.0250238 1042.06 1.70456e-05 0 0 0.0392889)
10(1.04746e-05 1.13387e-06 1.19964 291.188 0.0250691 1043.01 1.7076e-05 0 0 0.0918717)
10(1.84664e-05 1.99945e-06 1.19869 291.857 0.0251179 1043.75 1.71085e-05 0 0 0.159909)
10(2.87154e-05 3.10992e-06 1.19696 292.646 0.025174 1044.36 1.71457e-05 0 0 0.245474)
10(4.15248e-05 4.49835e-06 1.19437 293.61 0.0252414 1044.88 1.71903e-05 0 0 0.35037)
10(5.71552e-05 6.19323e-06 1.19081 294.807 0.0253241 1045.37 1.7245e-05 0 0 0.475885)
10(7.57851e-05 8.21422e-06 1.18611 296.302 0.0254269 1045.85 1.73127e-05 0 0 0.622465)
10(9.74578e-05 1.05664e-05 1.18046 298.165 0.0255545 1046.38 1.73968e-05 0 0 0.789288)
10(0.000122012 1.32327e-05 1.17254 300.477 0.0257125 1046.96 1.75007e-05 0 0 0.973727)
10(0.000148995 1.61644e-05 1.16313 303.329 0.0259071 1047.63 1.76286e-05 0 0 1.17067)
10(0.000177549 1.92691e-05 1.15158 306.821 0.0261452 1048.42 1.7785e-05 0 0 1.37171)
10(0.000206276 2.23957e-05 1.13753 311.066 0.0264345 1049.34 1.79748e-05 0 0 1.56415)
10(0.000233075 2.53166e-05 1.12057 316.188 0.0267833 1050.4 1.82035e-05 0 0 1.72979)
10(0.000254941 2.77062e-05 1.10025 322.324 0.027201 1051.64 1.8477e-05 0 0 1.84361)
10(0.000267742 2.91163e-05 1.07608 329.623 0.0276975 1053.05 1.88019e-05 0 0 1.87219)
10(0.000265961 2.89478e-05 1.04751 338.244 0.0282835 1054.65 1.9185e-05 0 0 1.77197)
10(0.000242406 2.64195e-05 1.01398 348.352 0.0289701 1056.41 1.96334e-05 0 0 1.4874)
10(0.000187914 2.0535e-05 0.974846 360.12 0.0297686 1058.33 2.01543e-05 0 0 0.948986)
10(9.10363e-05 1.00488e-05 0.929492 373.72 0.0306905 1060.36 2.07549e-05 0 0 0.071422)
10(-7.11997e-15 0 1.19935 290 0.0249778 1040.8 1.70146e-05 0 0 2.18881e-08)
10(6.84441e-06 7.41336e-07 1.1991 290.718 0.025032 1041.94 1.70509e-05 0 0 0.0582272)
10(1.55004e-05 1.67924e-06 1.19809 291.507 0.0250898 1042.87 1.70895e-05 0 0 0.130472)
10(2.61678e-05 2.8355e-06 1.19629 292.414 0.0251547 1043.64 1.71325e-05 0 0 0.217899)
10(3.90173e-05 4.22881e-06 1.19365 293.483 0.0252299 1044.32 1.71823e-05 0 0 0.32134)
10(5.41711e-05 5.87259e-06 1.19007 294.763 0.0253189 1044.93 1.72411e-05 0 0 0.441135)
10(7.16766e-05 7.77224e-06 1.18543 296.305 0.0254253 1045.52 1.73113e-05 0 0 0.576922)
10(9.14752e-05 9.92164e-06 1.1796 298.166 0.0255531 1046.11 1.73955e-05 0 0 0.727394)
10(0.000113362 1.22989e-05 1.17239 300.405 0.0257065 1046.74 1.74964e-05 0 0 0.88999)
10(0.00013694 1.48613e-05 1.1637 303.09 0.0258899 1047.41 1.7617e-05 0 0 1.06054)
10(0.00016156 1.75386e-05 1.15319 306.292 0.0261085 1048.17 1.77605e-05 0 0 1.23284)
10(0.000186254 2.02262e-05 1.14067 310.092 0.0263675 1049.02 1.79304e-05 0 0 1.39817)
10(0.000209656 2.27763e-05 1.12587 314.574 0.0266729 1049.97 1.81307e-05 0 0 1.54469)
10(0.00022991 2.49878e-05 1.10848 319.833 0.027031 1051.05 1.83652e-05 0 0 1.65686)
10(0.000244568 2.6595e-05 1.08817 325.969 0.0274485 1052.26 1.86385e-05 0 0 1.71466)
10(0.00025047 2.72549e-05 1.06459 333.088 0.0279326 1053.61 1.89552e-05 0 0 1.69282)
10(0.000243617 2.65336e-05 1.03736 341.304 0.0284909 1055.11 1.93201e-05 0 0 1.56)
10(0.000219036 2.38903e-05 1.00606 350.733 0.0291313 1056.74 1.97382e-05 0 0 1.27783)
10(0.000170631 1.86624e-05 0.970239 361.498 0.0298618 1058.5 2.02148e-05 0 0 0.800015)
10(9.10363e-05 1.00488e-05 0.929492 373.72 0.0306905 1060.36 2.07549e-05 0 0 0.071422)
10(-7.11997e-15 0 1.19935 290 0.0249778 1040.8 1.70146e-05 0 0 2.18881e-08)
10(9.53506e-06 1.03356e-06 1.19813 290.918 0.0250449 1041.85 1.70593e-05 0 0 0.0781023)
10(2.0819e-05 2.25712e-06 1.19614 291.956 0.0251193 1042.77 1.71087e-05 0 0 0.16897)
10(3.392e-05 3.67822e-06 1.19332 293.151 0.0252036 1043.57 1.71646e-05 0 0 0.27271)
10(4.88598e-05 5.29936e-06 1.18961 294.54 0.0253007 1044.31 1.72287e-05 0 0 0.389003)
10(6.55982e-05 7.11634e-06 1.18492 296.165 0.0254132 1045.01 1.73029e-05 0 0 0.516978)
10(8.40142e-05 9.11625e-06 1.17914 298.069 0.0255444 1045.69 1.73893e-05 0 0 0.655076)
10(0.000103885 1.12751e-05 1.17216 300.296 0.0256972 1046.38 1.74899e-05 0 0 0.800883)
10(0.00012486 1.35551e-05 1.16384 302.896 0.0258752 1047.1 1.76068e-05 0 0 0.950944)
10(0.000146432 1.59014e-05 1.15406 305.92 0.0260819 1047.86 1.77426e-05 0 0 1.10055)
10(0.000167903 1.82386e-05 1.14264 309.426 0.0263211 1048.68 1.78995e-05 0 0 1.24349)
10(0.00018835 2.04665e-05 1.12935 313.472 0.026597 1049.58 1.80804e-05 0 0 1.3718)
10(0.000206576 2.24557e-05 1.11403 318.122 0.0269137 1050.57 1.8288e-05 0 0 1.47544)
10(0.00022107 2.40421e-05 1.09646 323.443 0.027276 1051.65 1.85252e-05 0 0 1.54199)
10(0.000229951 2.50216e-05 1.0764 329.508 0.0276886 1052.83 1.87952e-05 0 0 1.55628)
10(0.000230911 2.51437e-05 1.0536 336.392 0.0281566 1054.12 1.91012e-05 0 0 1.50003)
10(0.000221157 2.41051e-05 1.02781 344.172 0.0286853 1055.53 1.94467e-05 0 0 1.35141)
10(0.000197347 2.15425e-05 0.99873 352.931 0.0292801 1057.04 1.98351e-05 0 0 1.08466)
10(0.000155522 1.70254e-05 0.966042 362.752 0.0299466 1058.65 2.027e-05 0 0 0.669644)
10(9.10363e-05 1.00488e-05 0.929492 373.72 0.0306905 1060.36 2.07549e-05 0 0 0.071422)
10(-7.11997e-15 0 1.19935 290 0.0249778 1040.8 1.70146e-05 0 0 2.18881e-08)
10(1.21625e-05 1.31935e-06 1.19696 291.193 0.025063 1041.8 1.70711e-05 0 0 0.0961609)
10(2.57661e-05 2.79552e-06 1.19379 292.54 0.0251581 1042.7 1.7134e-05 0 0 0.202031)
10(4.07632e-05 4.42346e-06 1.18977 294.071 0.0252652 1043.54 1.72048e-05 0 0 0.316864)
10(5.70583e-05 6.19293e-06 1.18485 295.818 0.0253864 1044.34 1.72847e-05 0 0 0.439509)
10(7.44981e-05 8.08745e-06 1.17895 297.81 0.025524 1045.11 1.73753e-05 0 0 0.568337)
10(9.28603e-05 1.0083e-05 1.17198 300.082 0.0256802 1045.87 1.74781e-05 0 0 0.701154)
10(0.000111841 1.21468e-05 1.16386 302.669 0.0258577 1046.65 1.75948e-05 0 0 0.83511)
10(0.000131039 1.42355e-05 1.15449 305.608 0.0260588 1047.45 1.77268e-05 0 0 0.966597)
10(0.000149945 1.62937e-05 1.14373 308.937 0.0262863 1048.28 1.78761e-05 0 0 1.09114)
10(0.000167916 1.8252e-05 1.1314 312.698 0.0265429 1049.16 1.80444e-05 0 0 1.20325)
10(0.000184164 2.00251e-05 1.11772 316.933 0.0268316 1050.1 1.82336e-05 0 0 1.29635)
10(0.000197734 2.15091e-05 1.10207 321.687 0.0271555 1051.11 1.84457e-05 0 0 1.36256)
10(0.000207478 2.25796e-05 1.08453 327.009 0.0275177 1052.19 1.86828e-05 0 0 1.39259)
10(0.000212034 2.30888e-05 1.06491 332.946 0.0279216 1053.34 1.8947e-05 0 0 1.37558)
10(0.000209801 2.28628e-05 1.04306 339.55 0.0283706 1054.58 1.92406e-05 0 0 1.29888)
10(0.000198912 2.16987e-05 1.01879 346.875 0.0288683 1055.9 1.95658e-05 0 0 1.14796)
10(0.000177203 1.93615e-05 0.991918 354.973 0.0294184 1057.31 1.9925e-05 0 0 0.90613)
10(0.00014219 1.5581e-05 0.962185 363.903 0.0300245 1058.8 2.03206e-05 0 0 0.554434)
10(9.10363e-05 1.00488e-05 0.929492 373.72 0.0306905 1060.36 2.07549e-05 0 0 0.071422)
10(-7.11997e-15 0 1.19935 290 0.0249778 1040.8 1.70146e-05 0 0 2.18881e-08)
10(1.43362e-05 1.55633e-06 1.19556 291.543 0.0250863 1041.76 1.70863e-05 0 0 0.109357)
10(2.96187e-05 3.21593e-06 1.19101 293.261 0.0252062 1042.67 1.71655e-05 0 0 0.224144)
10(4.57249e-05 4.96558e-06 1.18563 295.176 0.0253392 1043.54 1.72531e-05 0 0 0.343125)
10(6.24936e-05 6.78788e-06 1.17937 297.31 0.0254866 1044.39 1.73502e-05 0 0 0.464755)
10(7.972e-05 8.66067e-06 1.17219 299.686 0.0256503 1045.23 1.74579e-05 0 0 0.587139)
10(9.71495e-05 1.05564e-05 1.16402 302.329 0.0258318 1046.07 1.75771e-05 0 0 0.707992)
10(0.000114472 1.24416e-05 1.15478 305.263 0.0260329 1046.91 1.77092e-05 0 0 0.824594)
10(0.000131314 1.42757e-05 1.14441 308.515 0.0262554 1047.78 1.78552e-05 0 0 0.93374)
10(0.000147233 1.60108e-05 1.13283 312.112 0.0265011 1048.68 1.80163e-05 0 0 1.03169)
10(0.000161709 1.75904e-05 1.11995 316.081 0.0267719 1049.61 1.81939e-05 0 0 1.11411)
10(0.000174134 1.89488e-05 1.10567 320.453 0.02707 1050.58 1.83891e-05 0 0 1.17603)
10(0.000183807 2.00097e-05 1.08991 325.257 0.0273972 1051.6 1.86034e-05 0 0 1.21175)
10(0.000189921 2.06857e-05 1.07265 330.523 0.0277558 1052.67 1.8838e-05 0 0 1.21483)
10(0.000191557 2.08769e-05 1.05365 336.286 0.0281478 1053.8 1.90944e-05 0 0 1.17795)
10(0.00018767 2.04697e-05 1.03286 342.577 0.0285756 1054.99 1.93741e-05 0 0 1.09292)
10(0.00017708 1.93361e-05 1.01017 349.43 0.0290413 1056.24 1.96784e-05 0 0 0.950555)
10(0.000158461 1.73319e-05 0.985463 356.882 0.0295475 1057.55 2.0009e-05 0 0 0.740618)
10(0.00013033 1.4296e-05 0.958612 364.966 0.0300964 1058.92 2.03673e-05 0 0 0.451757)
10(9.10363e-05 1.00488e-05 0.929492 373.72 0.0306905 1060.36 2.07549e-05 0 0 0.071422)
10(-7.11997e-15 0 1.19935 290 0.0249778 1040.8 1.70146e-05 0 0 2.18881e-08)
10(1.56453e-05 1.69987e-06 1.19394 291.971 0.0251149 1041.75 1.7105e-05 0 0 0.114623)
10(3.16585e-05 3.44027e-06 1.1878 294.119 0.0252637 1042.67 1.7203e-05 0 0 0.230048)
10(4.78924e-05 5.20529e-06 1.18091 296.46 0.0254254 1043.58 1.73094e-05 0 0 0.344953)
10(6.41751e-05 6.97631e-06 1.17323 299.009 0.0256009 1044.47 1.74247e-05 0 0 0.457824)
10(8.03075e-05 8.73177e-06 1.1647 301.78 0.0257913 1045.37 1.75499e-05 0 0 0.566935)
10(9.60609e-05 1.04469e-05 1.15531 304.791 0.0259978 1046.26 1.76854e-05 0 0 0.670335)
10(0.000111175 1.20934e-05 1.14499 308.057 0.0262214 1047.17 1.78322e-05 0 0 0.765826)
10(0.000125353 1.36393e-05 1.1337 311.595 0.0264633 1048.09 1.79908e-05 0 0 0.850944)
10(0.000138262 1.50484e-05 1.1214 315.422 0.0267247 1049.03 1.81622e-05 0 0 0.922946)
10(0.000149529 1.62801e-05 1.10801 319.556 0.0270068 1050 1.8347e-05 0 0 0.978779)
10(0.000158736 1.72892e-05 1.0935 324.015 0.0273109 1051 1.85461e-05 0 0 1.01507)
10(0.000165418 1.80251e-05 1.07781 328.819 0.0276381 1052.03 1.87603e-05 0 0 1.02809)
10(0.000169061 1.84321e-05 1.06087 333.985 0.0279899 1053.09 1.89905e-05 0 0 1.01376)
10(0.000169096 1.84484e-05 1.04262 339.533 0.0283674 1054.2 1.92374e-05 0 0 0.967573)
10(0.000164897 1.80059e-05 1.02303 345.483 0.0287722 1055.34 1.9502e-05 0 0 0.884642)
10(0.000155777 1.70302e-05 1.00197 351.856 0.0292054 1056.53 1.97852e-05 0 0 0.759618)
10(0.000140986 1.54394e-05 0.979415 358.673 0.0296686 1057.76 2.00878e-05 0 0 0.586693)
10(0.000119703 1.31446e-05 0.955278 365.954 0.0301632 1059.04 2.04107e-05 0 0 0.359565)
10(9.10363e-05 1.00488e-05 0.929492 373.72 0.0306905 1060.36 2.07549e-05 0 0 0.071422)
10(-7.11997e-15 0 1.19935 290 0.0249778 1040.8 1.70146e-05 0 0 2.18881e-08)
10(1.56896e-05 1.70641e-06 1.19207 292.474 0.0251486 1041.75 1.71269e-05 0 0 0.109072)
10(3.12172e-05 3.39578e-06 1.18418 295.109 0.0253302 1042.7 1.72463e-05 0 0 0.215009)
10(4.6457e-05 5.05448e-06 1.17564 297.916 0.0255232 1043.63 1.73731e-05 0 0 0.316743)
10(6.12706e-05 6.6675e-06 1.16643 300.902 0.0257282 1044.57 1.75078e-05 0 0 0.413113)
10(7.55064e-05 8.21841e-06 1.15653 304.077 0.0259459 1045.51 1.76507e-05 0 0 0.502855)
10(8.89991e-05 9.68928e-06 1.14591 307.449 0.0261769 1046.46 1.78022e-05 0 0 0.584602)
10(0.000101568 1.10606e-05 1.13456 311.029 0.0264218 1047.41 1.79628e-05 0 0 0.656878)
10(0.000113019 1.2311e-05 1.12243 314.825 0.0266812 1048.38 1.81328e-05 0 0 0.718087)
10(0.000123138 1.34177e-05 1.1095 318.846 0.0269558 1049.35 1.83128e-05 0 0 0.766516)
10(0.000131698 1.43557e-05 1.09575 323.104 0.0272463 1050.35 1.8503e-05 0 0 0.80032)
10(0.00013845 1.50981e-05 1.08114 327.607 0.0275534 1051.36 1.87041e-05 0 0 0.817524)
10(0.000143129 1.56161e-05 1.06564 332.366 0.0278777 1052.4 1.89164e-05 0 0 0.816012)
10(0.000145447 1.58787e-05 1.04922 337.39 0.02822 1053.46 1.91403e-05 0 0 0.793522)
10(0.0001451 1.58523e-05 1.03185 342.692 0.0285809 1054.54 1.93764e-05 0 0 0.74764)
10(0.000141757 1.55014e-05 1.01349 348.28 0.0289611 1055.65 1.9625e-05 0 0 0.675795)
10(0.000135067 1.47878e-05 0.99411 354.166 0.0293615 1056.78 1.98867e-05 0 0 0.575249)
10(0.000124654 1.36706e-05 0.973675 360.361 0.0297827 1057.95 2.0162e-05 0 0 0.443093)
10(0.000110119 1.21063e-05 0.952148 366.875 0.0302254 1059.14 2.04512e-05 0 0 0.276241)