/*--------------------------------*- C++ -*----------------------------------*\
| =========                 |                                                 |
| \\      /  F ield         | OpenFOAM: The Open Source CFD Toolbox           |
|  \\    /   O peration     | Version:  1.5                                   |
|   \\  /    A nd           | Web:      http://www.OpenFOAM.org               |
|    \\/     M anipulation  |                                                 |
\*---------------------------------------------------------------------------*/
FoamFile
{
    version     2.0;
    format      ascii;
    class       dictionary;
    location    "constant";
    object      LDMtable;
}
// * * * * * * * * * * * * * * * * * * * * * * * * * * * * * * * * * * * * * //

constantNormValue_CO2 0.110382;
tableData (
2 50 50 
-1.71666e+06 0 
33301.8 0.0204082 
9(-7.11997e-15 290 1.19935 0.0249778 1.70146e-05 1040.8 0.104732 2.41605e-09 0)
9(-9.86365e-15 290 1.1996 0.0249908 1.70272e-05 1040.61 0.102581 3.33596e-09 0)
9(-1.26254e-14 290 1.19986 0.0250038 1.70397e-05 1040.43 0.10043 4.25587e-09 0)
9(-1.54053e-14 290 1.20012 0.0250167 1.70522e-05 1040.25 0.0982791 5.17578e-09 0)
9(-1.82033e-14 290 1.20037 0.0250298 1.70648e-05 1040.06 0.0961281 6.0957e-09 0)
9(-2.10194e-14 290 1.20063 0.0250428 1.70774e-05 1039.88 0.0939771 7.01561e-09 0)
9(-2.38536e-14 290 1.20089 0.0250558 1.70899e-05 1039.7 0.0918261 7.93552e-09 0)
9(-2.67059e-14 290 1.20115 0.0250689 1.71025e-05 1039.52 0.0896751 8.85543e-09 0)
9(-2.95765e-14 290 1.2014 0.025082 1.71151e-05 1039.33 0.0875241 9.77534e-09 0)
9(-3.24651e-14 290 1.20166 0.025095 1.71277e-05 1039.15 0.0853731 1.06953e-08 0)
9(-3.5372e-14 290 1.20192 0.0251081 1.71404e-05 1038.97 0.0832221 1.16152e-08 0)
9(-3.8297e-14 290 1.20218 0.0251212 1.7153e-05 1038.79 0.081071 1.25351e-08 0)
9(-4.12403e-14 290 1.20243 0.0251344 1.71657e-05 1038.6 0.07892 1.3455e-08 0)
9(-4.42017e-14 290 1.20269 0.0251475 1.71783e-05 1038.42 0.076769 1.43749e-08 0)
9(-4.71814e-14 290 1.20295 0.0251607 1.7191e-05 1038.24 0.074618 1.52948e-08 0)
9(-5.01793e-14 290 1.20321 0.0251738 1.72037e-05 1038.05 0.072467 1.62147e-08 0)
9(-5.31955e-14 290 1.20347 0.025187 1.72164e-05 1037.87 0.070316 1.71346e-08 0)
9(-5.62299e-14 290 1.20373 0.0252002 1.72291e-05 1037.69 0.068165 1.80546e-08 0)
9(-5.92826e-14 290 1.20399 0.0252135 1.72418e-05 1037.51 0.066014 1.89745e-08 0)
9(-6.23536e-14 290 1.20424 0.0252267 1.72546e-05 1037.32 0.063863 1.98944e-08 0)
9(-6.54429e-14 290 1.2045 0.0252399 1.72673e-05 1037.14 0.0617119 2.08143e-08 0)
9(-6.85504e-14 290 1.20476 0.0252532 1.72801e-05 1036.96 0.0595609 2.17342e-08 0)
9(-7.16763e-14 290 1.20502 0.0252665 1.72929e-05 1036.78 0.0574099 2.26541e-08 0)
9(-7.48205e-14 290 1.20528 0.0252798 1.73056e-05 1036.59 0.0552589 2.3574e-08 0)
9(-7.79831e-14 290 1.20554 0.0252931 1.73185e-05 1036.41 0.0531079 2.44939e-08 0)
9(-8.1164e-14 290 1.2058 0.0253064 1.73313e-05 1036.23 0.0509569 2.54138e-08 0)
9(-8.43633e-14 290 1.20606 0.0253197 1.73441e-05 1036.04 0.0488059 2.63338e-08 0)
9(-8.7581e-14 290 1.20632 0.0253331 1.73569e-05 1035.86 0.0466549 2.72537e-08 0)
9(-9.0817e-14 290 1.20658 0.0253465 1.73698e-05 1035.68 0.0445038 2.81736e-08 0)
9(-9.40715e-14 290 1.20684 0.0253598 1.73826e-05 1035.5 0.0423528 2.90935e-08 0)
9(-9.73443e-14 290 1.2071 0.0253732 1.73955e-05 1035.31 0.0402018 3.00134e-08 0)
9(-1.00636e-13 290 1.20736 0.0253867 1.74084e-05 1035.13 0.0380508 3.09333e-08 0)
9(-1.03945e-13 290 1.20762 0.0254001 1.74213e-05 1034.95 0.0358998 3.18532e-08 0)
9(-1.07273e-13 290 1.20788 0.0254135 1.74342e-05 1034.77 0.0337488 3.27731e-08 0)
9(4.58798e-20 290.013 1.20807 0.0254288 1.74478e-05 1034.6 0.0315978 1.05717e-05 0.005)
9(1.6907e-13 290.011 1.20834 0.0254423 1.74606e-05 1034.41 0.0294468 8.21758e-05 0)
9(-1.49669e-13 290.004 1.20863 0.0254549 1.74732e-05 1034.23 0.0272958 3.42136e-05 0)
9(2.36691e-13 290 1.20892 0.0254678 1.7486e-05 1034.04 0.0251447 6.75739e-06 0)
9(2.03169e-18 290.001 1.20917 0.0254817 1.74991e-05 1033.86 0.0229937 1.82363e-06 0.003125)
9(4.32025e-23 290.002 1.20943 0.0254953 1.75121e-05 1033.68 0.0208427 3.53748e-06 0.0046875)
9(7.63683e-22 290.004 1.20968 0.0255094 1.75252e-05 1033.5 0.0186917 8.19203e-06 0.00625)
9(1.06957e-20 290.008 1.20991 0.025524 1.75384e-05 1033.32 0.0165407 1.69699e-05 0.0078125)
9(6.80893e-22 290.003 1.2102 0.0255366 1.75512e-05 1033.13 0.0143897 5.26581e-06 0.0078125)
9(9.56901e-20 290.014 1.21038 0.0255534 1.75647e-05 1032.98 0.0122387 4.17609e-05 0.0242188)
9(1.15833e-20 290.006 1.2107 0.0255651 1.75774e-05 1032.78 0.0100877 1.2716e-05 0.279996)
9(3.34222e-23 290 1.211 0.0255771 1.75902e-05 1032.58 0.00793664 1.97865e-06 0.16687)
9(1.26603e-21 290.002 1.21124 0.0255919 1.76034e-05 1032.41 0.00578563 4.71547e-06 0.0537474)
9(2.23253e-21 290.002 1.2115 0.0256058 1.76165e-05 1032.23 0.00363462 6.79467e-06 0.0543762)
9(-3.42456e-27 290 1.2118 0.0256171 1.76295e-05 1032.02 0.0014836 3.19614e-09 0.0789474)
9(-3.70117e-13 300 1.17158 0.0262707 1.81084e-05 1034.66 0 -6.62475e-19 -1.26657)
9(-7.11997e-15 290 1.19935 0.0249778 1.70146e-05 1040.8 0.104732 2.41605e-09 0)
9(-9.86365e-15 290 1.1996 0.0249908 1.70272e-05 1040.61 0.102581 3.33596e-09 0)
9(-1.26254e-14 290 1.19986 0.0250038 1.70397e-05 1040.43 0.10043 4.25587e-09 0)
9(-1.54053e-14 290 1.20012 0.0250167 1.70522e-05 1040.25 0.0982791 5.17578e-09 0)
9(-1.82033e-14 290 1.20037 0.0250298 1.70648e-05 1040.06 0.0961281 6.0957e-09 0)
9(-2.10194e-14 290 1.20063 0.0250428 1.70774e-05 1039.88 0.0939771 7.01561e-09 0)
9(-2.38536e-14 290 1.20089 0.0250558 1.70899e-05 1039.7 0.0918261 7.93552e-09 0)
9(-2.67059e-14 290 1.20115 0.0250689 1.71025e-05 1039.52 0.0896751 8.85543e-09 0)
9(-2.95765e-14 290 1.2014 0.025082 1.71151e-05 1039.33 0.0875241 9.77534e-09 0)
9(-3.24651e-14 290 1.20166 0.025095 1.71277e-05 1039.15 0.0853731 1.06953e-08 0)
9(-3.5372e-14 290 1.20192 0.0251081 1.71404e-05 1038.97 0.0832221 1.16152e-08 0)
9(-3.8297e-14 290 1.20218 0.0251212 1.7153e-05 1038.79 0.081071 1.25351e-08 0)
9(-4.12403e-14 290 1.20243 0.0251344 1.71657e-05 1038.6 0.07892 1.3455e-08 0)
9(-4.42017e-14 290 1.20269 0.0251475 1.71783e-05 1038.42 0.076769 1.43749e-08 0)
9(-4.71814e-14 290 1.20295 0.0251607 1.7191e-05 1038.24 0.074618 1.52948e-08 0)
9(-5.01793e-14 290 1.20321 0.0251738 1.72037e-05 1038.05 0.072467 1.62147e-08 0)
9(-5.31955e-14 290 1.20347 0.025187 1.72164e-05 1037.87 0.070316 1.71346e-08 0)
9(-5.62299e-14 290 1.20373 0.0252002 1.72291e-05 1037.69 0.068165 1.80546e-08 0)
9(-5.92826e-14 290 1.20399 0.0252135 1.72418e-05 1037.51 0.066014 1.89745e-08 0)
9(-6.23536e-14 290 1.20424 0.0252267 1.72546e-05 1037.32 0.063863 1.98944e-08 0)
9(-6.54429e-14 290 1.2045 0.0252399 1.72673e-05 1037.14 0.0617119 2.08143e-08 0)
9(-6.85504e-14 290 1.20476 0.0252532 1.72801e-05 1036.96 0.0595609 2.17342e-08 0)
9(-7.16763e-14 290 1.20502 0.0252665 1.72929e-05 1036.78 0.0574099 2.26541e-08 0)
9(-7.48205e-14 290 1.20528 0.0252798 1.73056e-05 1036.59 0.0552589 2.3574e-08 0)
9(-7.79831e-14 290 1.20554 0.0252931 1.73185e-05 1036.41 0.0531079 2.44939e-08 0)
9(-8.1164e-14 290 1.2058 0.0253064 1.73313e-05 1036.23 0.0509569 2.54138e-08 0)
9(-8.43633e-14 290 1.20606 0.0253197 1.73441e-05 1036.04 0.0488059 2.63338e-08 0)
9(-8.7581e-14 290 1.20632 0.0253331 1.73569e-05 1035.86 0.0466549 2.72537e-08 0)
9(-9.0817e-14 290 1.20658 0.0253465 1.73698e-05 1035.68 0.0445038 2.81736e-08 0)
9(-9.40715e-14 290 1.20684 0.0253598 1.73826e-05 1035.5 0.0423528 2.90935e-08 0)
9(-9.73443e-14 290 1.2071 0.0253732 1.73955e-05 1035.31 0.0402018 3.00134e-08 0)
9(-1.00636e-13 290 1.20736 0.0253867 1.74084e-05 1035.13 0.0380508 3.09333e-08 0)
9(-1.03945e-13 290 1.20762 0.0254001 1.74213e-05 1034.95 0.0358998 3.18532e-08 0)
9(-1.07273e-13 290 1.20788 0.0254135 1.74342e-05 1034.77 0.0337488 3.27731e-08 0)
9(4.58798e-20 290.013 1.20807 0.0254288 1.74478e-05 1034.6 0.0315978 1.05717e-05 0.005)
9(1.6907e-13 290.011 1.20834 0.0254423 1.74606e-05 1034.41 0.0294468 8.21758e-05 0)
9(-1.49669e-13 290.004 1.20863 0.0254549 1.74732e-05 1034.23 0.0272958 3.42136e-05 0)
9(2.36691e-13 290 1.20892 0.0254678 1.7486e-05 1034.04 0.0251447 6.75739e-06 0)
9(2.03169e-18 290.001 1.20917 0.0254817 1.74991e-05 1033.86 0.0229937 1.82363e-06 0.003125)
9(4.32025e-23 290.002 1.20943 0.0254953 1.75121e-05 1033.68 0.0208427 3.53748e-06 0.0046875)
9(7.63683e-22 290.004 1.20968 0.0255094 1.75252e-05 1033.5 0.0186917 8.19203e-06 0.00625)
9(1.06957e-20 290.008 1.20991 0.025524 1.75384e-05 1033.32 0.0165407 1.69699e-05 0.0078125)
9(6.80893e-22 290.003 1.2102 0.0255366 1.75512e-05 1033.13 0.0143897 5.26581e-06 0.0078125)
9(9.56901e-20 290.014 1.21038 0.0255534 1.75647e-05 1032.98 0.0122387 4.17609e-05 0.0242188)
9(1.15833e-20 290.006 1.2107 0.0255651 1.75774e-05 1032.78 0.0100877 1.2716e-05 0.279996)
9(3.34222e-23 290 1.211 0.0255771 1.75902e-05 1032.58 0.00793664 1.97865e-06 0.16687)
9(1.26603e-21 290.002 1.21124 0.0255919 1.76034e-05 1032.41 0.00578563 4.71547e-06 0.0537474)
9(2.23253e-21 290.002 1.2115 0.0256058 1.76165e-05 1032.23 0.00363462 6.79467e-06 0.0543762)
9(3.56819e-06 344.29 1.01693 0.0292959 2.00363e-05 1051.76 0.0022523 4.25862 0.0864694)
9(0.000159651 422.989 0.824663 0.0346261 2.32403e-05 1079.31 0.00225217 13.8293 7.32671e+08)
9(-7.11997e-15 290 1.19935 0.0249778 1.70146e-05 1040.8 0.104732 2.41605e-09 0)
9(-9.86365e-15 290 1.1996 0.0249908 1.70272e-05 1040.61 0.102581 3.33596e-09 0)
9(-1.26254e-14 290 1.19986 0.0250038 1.70397e-05 1040.43 0.10043 4.25587e-09 0)
9(-1.54053e-14 290 1.20012 0.0250167 1.70522e-05 1040.25 0.0982791 5.17578e-09 0)
9(-1.82033e-14 290 1.20037 0.0250298 1.70648e-05 1040.06 0.0961281 6.0957e-09 0)
9(-2.10194e-14 290 1.20063 0.0250428 1.70774e-05 1039.88 0.0939771 7.01561e-09 0)
9(-2.38536e-14 290 1.20089 0.0250558 1.70899e-05 1039.7 0.0918261 7.93552e-09 0)
9(-2.67059e-14 290 1.20115 0.0250689 1.71025e-05 1039.52 0.0896751 8.85543e-09 0)
9(-2.95765e-14 290 1.2014 0.025082 1.71151e-05 1039.33 0.0875241 9.77534e-09 0)
9(-3.24651e-14 290 1.20166 0.025095 1.71277e-05 1039.15 0.0853731 1.06953e-08 0)
9(-3.5372e-14 290 1.20192 0.0251081 1.71404e-05 1038.97 0.0832221 1.16152e-08 0)
9(-3.8297e-14 290 1.20218 0.0251212 1.7153e-05 1038.79 0.081071 1.25351e-08 0)
9(-4.12403e-14 290 1.20243 0.0251344 1.71657e-05 1038.6 0.07892 1.3455e-08 0)
9(-4.42017e-14 290 1.20269 0.0251475 1.71783e-05 1038.42 0.076769 1.43749e-08 0)
9(-4.71814e-14 290 1.20295 0.0251607 1.7191e-05 1038.24 0.074618 1.52948e-08 0)
9(-5.01793e-14 290 1.20321 0.0251738 1.72037e-05 1038.05 0.072467 1.62147e-08 0)
9(-5.31955e-14 290 1.20347 0.025187 1.72164e-05 1037.87 0.070316 1.71346e-08 0)
9(-5.62299e-14 290 1.20373 0.0252002 1.72291e-05 1037.69 0.068165 1.80546e-08 0)
9(-5.92826e-14 290 1.20399 0.0252135 1.72418e-05 1037.51 0.066014 1.89745e-08 0)
9(-6.23536e-14 290 1.20424 0.0252267 1.72546e-05 1037.32 0.063863 1.98944e-08 0)
9(-6.54429e-14 290 1.2045 0.0252399 1.72673e-05 1037.14 0.0617119 2.08143e-08 0)
9(-6.85504e-14 290 1.20476 0.0252532 1.72801e-05 1036.96 0.0595609 2.17342e-08 0)
9(-7.16763e-14 290 1.20502 0.0252665 1.72929e-05 1036.78 0.0574099 2.26541e-08 0)
9(-7.48205e-14 290 1.20528 0.0252798 1.73056e-05 1036.59 0.0552589 2.3574e-08 0)
9(-7.79831e-14 290 1.20554 0.0252931 1.73185e-05 1036.41 0.0531079 2.44939e-08 0)
9(-8.1164e-14 290 1.2058 0.0253064 1.73313e-05 1036.23 0.0509569 2.54138e-08 0)
9(-8.43633e-14 290 1.20606 0.0253197 1.73441e-05 1036.04 0.0488059 2.63338e-08 0)
9(-8.7581e-14 290 1.20632 0.0253331 1.73569e-05 1035.86 0.0466549 2.72537e-08 0)
9(-9.0817e-14 290 1.20658 0.0253465 1.73698e-05 1035.68 0.0445038 2.81736e-08 0)
9(-9.40715e-14 290 1.20684 0.0253598 1.73826e-05 1035.5 0.0423528 2.90935e-08 0)
9(-9.73443e-14 290 1.2071 0.0253732 1.73955e-05 1035.31 0.0402018 3.00134e-08 0)
9(-1.00636e-13 290 1.20736 0.0253867 1.74084e-05 1035.13 0.0380508 3.09333e-08 0)
9(-1.03945e-13 290 1.20762 0.0254001 1.74213e-05 1034.95 0.0358998 3.18532e-08 0)
9(-1.07273e-13 290 1.20788 0.0254135 1.74342e-05 1034.77 0.0337488 3.27731e-08 0)
9(4.58798e-20 290.013 1.20807 0.0254288 1.74478e-05 1034.6 0.0315978 1.05717e-05 0.005)
9(1.6907e-13 290.011 1.20834 0.0254423 1.74606e-05 1034.41 0.0294468 8.21758e-05 0)
9(-1.49669e-13 290.004 1.20863 0.0254549 1.74732e-05 1034.23 0.0272958 3.42136e-05 0)
9(2.36691e-13 290 1.20892 0.0254678 1.7486e-05 1034.04 0.0251447 6.75739e-06 0)
9(2.03169e-18 290.001 1.20917 0.0254817 1.74991e-05 1033.86 0.0229937 1.82363e-06 0.003125)
9(4.32025e-23 290.002 1.20943 0.0254953 1.75121e-05 1033.68 0.0208427 3.53748e-06 0.0046875)
9(7.63683e-22 290.004 1.20968 0.0255094 1.75252e-05 1033.5 0.0186917 8.19203e-06 0.00625)
9(1.06957e-20 290.008 1.20991 0.025524 1.75384e-05 1033.32 0.0165407 1.69699e-05 0.0078125)
9(6.80893e-22 290.003 1.2102 0.0255366 1.75512e-05 1033.13 0.0143897 5.26581e-06 0.0078125)
9(9.56901e-20 290.014 1.21038 0.0255534 1.75647e-05 1032.98 0.0122387 4.17609e-05 0.0242188)
9(1.15833e-20 290.006 1.2107 0.0255651 1.75774e-05 1032.78 0.0100877 1.2716e-05 0.279996)
9(3.34222e-23 290 1.211 0.0255771 1.75902e-05 1032.58 0.00793664 1.97865e-06 0.16687)
9(1.26603e-21 290.002 1.21124 0.0255919 1.76034e-05 1032.41 0.00578563 4.71547e-06 0.0537474)
9(3.21326e-06 347.881 1.00617 0.0295128 2.01767e-05 1052.99 0.00450481 4.20483 0.0572222)
9(0.00022925 438.761 0.794505 0.0356129 2.38294e-05 1084.74 0.00450461 17.6693 0.086742)
9(0.00159705 501.271 0.693757 0.0398005 2.6153e-05 1106.66 0.00450434 26.0738 -1.04916e+08)
9(-7.11997e-15 290 1.19935 0.0249778 1.70146e-05 1040.8 0.104732 2.41605e-09 0)
9(-9.86365e-15 290 1.1996 0.0249908 1.70272e-05 1040.61 0.102581 3.33596e-09 0)
9(-1.26254e-14 290 1.19986 0.0250038 1.70397e-05 1040.43 0.10043 4.25587e-09 0)
9(-1.54053e-14 290 1.20012 0.0250167 1.70522e-05 1040.25 0.0982791 5.17578e-09 0)
9(-1.82033e-14 290 1.20037 0.0250298 1.70648e-05 1040.06 0.0961281 6.0957e-09 0)
9(-2.10194e-14 290 1.20063 0.0250428 1.70774e-05 1039.88 0.0939771 7.01561e-09 0)
9(-2.38536e-14 290 1.20089 0.0250558 1.70899e-05 1039.7 0.0918261 7.93552e-09 0)
9(-2.67059e-14 290 1.20115 0.0250689 1.71025e-05 1039.52 0.0896751 8.85543e-09 0)
9(-2.95765e-14 290 1.2014 0.025082 1.71151e-05 1039.33 0.0875241 9.77534e-09 0)
9(-3.24651e-14 290 1.20166 0.025095 1.71277e-05 1039.15 0.0853731 1.06953e-08 0)
9(-3.5372e-14 290 1.20192 0.0251081 1.71404e-05 1038.97 0.0832221 1.16152e-08 0)
9(-3.8297e-14 290 1.20218 0.0251212 1.7153e-05 1038.79 0.081071 1.25351e-08 0)
9(-4.12403e-14 290 1.20243 0.0251344 1.71657e-05 1038.6 0.07892 1.3455e-08 0)
9(-4.42017e-14 290 1.20269 0.0251475 1.71783e-05 1038.42 0.076769 1.43749e-08 0)
9(-4.71814e-14 290 1.20295 0.0251607 1.7191e-05 1038.24 0.074618 1.52948e-08 0)
9(-5.01793e-14 290 1.20321 0.0251738 1.72037e-05 1038.05 0.072467 1.62147e-08 0)
9(-5.31955e-14 290 1.20347 0.025187 1.72164e-05 1037.87 0.070316 1.71346e-08 0)
9(-5.62299e-14 290 1.20373 0.0252002 1.72291e-05 1037.69 0.068165 1.80546e-08 0)
9(-5.92826e-14 290 1.20399 0.0252135 1.72418e-05 1037.51 0.066014 1.89745e-08 0)
9(-6.23536e-14 290 1.20424 0.0252267 1.72546e-05 1037.32 0.063863 1.98944e-08 0)
9(-6.54429e-14 290 1.2045 0.0252399 1.72673e-05 1037.14 0.0617119 2.08143e-08 0)
9(-6.85504e-14 290 1.20476 0.0252532 1.72801e-05 1036.96 0.0595609 2.17342e-08 0)
9(-7.16763e-14 290 1.20502 0.0252665 1.72929e-05 1036.78 0.0574099 2.26541e-08 0)
9(-7.48205e-14 290 1.20528 0.0252798 1.73056e-05 1036.59 0.0552589 2.3574e-08 0)
9(-7.79831e-14 290 1.20554 0.0252931 1.73185e-05 1036.41 0.0531079 2.44939e-08 0)
9(-8.1164e-14 290 1.2058 0.0253064 1.73313e-05 1036.23 0.0509569 2.54138e-08 0)
9(-8.43633e-14 290 1.20606 0.0253197 1.73441e-05 1036.04 0.0488059 2.63338e-08 0)
9(-8.7581e-14 290 1.20632 0.0253331 1.73569e-05 1035.86 0.0466549 2.72537e-08 0)
9(-9.0817e-14 290 1.20658 0.0253465 1.73698e-05 1035.68 0.0445038 2.81736e-08 0)
9(-9.40715e-14 290 1.20684 0.0253598 1.73826e-05 1035.5 0.0423528 2.90935e-08 0)
9(-9.73443e-14 290 1.2071 0.0253732 1.73955e-05 1035.31 0.0402018 3.00134e-08 0)
9(-1.00636e-13 290 1.20736 0.0253867 1.74084e-05 1035.13 0.0380508 3.09333e-08 0)
9(-1.03945e-13 290 1.20762 0.0254001 1.74213e-05 1034.95 0.0358998 3.18532e-08 0)
9(-1.07273e-13 290 1.20788 0.0254135 1.74342e-05 1034.77 0.0337488 3.27731e-08 0)
9(4.58798e-20 290.013 1.20807 0.0254288 1.74478e-05 1034.6 0.0315978 1.05717e-05 0.005)
9(1.6907e-13 290.011 1.20834 0.0254423 1.74606e-05 1034.41 0.0294468 8.21758e-05 0)
9(-1.49669e-13 290.004 1.20863 0.0254549 1.74732e-05 1034.23 0.0272958 3.42136e-05 0)
9(2.36691e-13 290 1.20892 0.0254678 1.7486e-05 1034.04 0.0251447 6.75739e-06 0)
9(2.03169e-18 290.001 1.20917 0.0254817 1.74991e-05 1033.86 0.0229937 1.82363e-06 0.003125)
9(4.32025e-23 290.002 1.20943 0.0254953 1.75121e-05 1033.68 0.0208427 3.53748e-06 0.0046875)
9(7.63683e-22 290.004 1.20968 0.0255094 1.75252e-05 1033.5 0.0186917 8.19203e-06 0.00625)
9(1.06957e-20 290.008 1.20991 0.025524 1.75384e-05 1033.32 0.0165407 1.69699e-05 0.0078125)
9(6.80893e-22 290.003 1.2102 0.0255366 1.75512e-05 1033.13 0.0143897 5.26581e-06 0.0078125)
9(9.56901e-20 290.014 1.21038 0.0255534 1.75647e-05 1032.98 0.0122387 4.17609e-05 0.0242188)
9(1.15833e-20 290.006 1.2107 0.0255651 1.75774e-05 1032.78 0.0100877 1.2716e-05 0.279996)
9(3.34222e-23 290 1.211 0.0255771 1.75902e-05 1032.58 0.00793664 1.97865e-06 0.16687)
9(2.6459e-06 351.333 0.996037 0.0297212 2.03108e-05 1054.15 0.00675744 3.85665 0.0568946)
9(0.000162025 439.035 0.794007 0.0356061 2.38304e-05 1084.61 0.00675721 15.6511 0.0574233)
9(0.00165148 510.621 0.680549 0.0404156 2.64745e-05 1110.13 0.00675691 28.7485 0.0868335)
9(0.00716823 566.846 0.611661 0.0441788 2.84472e-05 1130.18 0.00675652 37.5358 -4.60083e+06)
9(-7.11997e-15 290 1.19935 0.0249778 1.70146e-05 1040.8 0.104732 2.41605e-09 0)
9(-9.86365e-15 290 1.1996 0.0249908 1.70272e-05 1040.61 0.102581 3.33596e-09 0)
9(-1.26254e-14 290 1.19986 0.0250038 1.70397e-05 1040.43 0.10043 4.25587e-09 0)
9(-1.54053e-14 290 1.20012 0.0250167 1.70522e-05 1040.25 0.0982791 5.17578e-09 0)
9(-1.82033e-14 290 1.20037 0.0250298 1.70648e-05 1040.06 0.0961281 6.0957e-09 0)
9(-2.10194e-14 290 1.20063 0.0250428 1.70774e-05 1039.88 0.0939771 7.01561e-09 0)
9(-2.38536e-14 290 1.20089 0.0250558 1.70899e-05 1039.7 0.0918261 7.93552e-09 0)
9(-2.67059e-14 290 1.20115 0.0250689 1.71025e-05 1039.52 0.0896751 8.85543e-09 0)
9(-2.95765e-14 290 1.2014 0.025082 1.71151e-05 1039.33 0.0875241 9.77534e-09 0)
9(-3.24651e-14 290 1.20166 0.025095 1.71277e-05 1039.15 0.0853731 1.06953e-08 0)
9(-3.5372e-14 290 1.20192 0.0251081 1.71404e-05 1038.97 0.0832221 1.16152e-08 0)
9(-3.8297e-14 290 1.20218 0.0251212 1.7153e-05 1038.79 0.081071 1.25351e-08 0)
9(-4.12403e-14 290 1.20243 0.0251344 1.71657e-05 1038.6 0.07892 1.3455e-08 0)
9(-4.42017e-14 290 1.20269 0.0251475 1.71783e-05 1038.42 0.076769 1.43749e-08 0)
9(-4.71814e-14 290 1.20295 0.0251607 1.7191e-05 1038.24 0.074618 1.52948e-08 0)
9(-5.01793e-14 290 1.20321 0.0251738 1.72037e-05 1038.05 0.072467 1.62147e-08 0)
9(-5.31955e-14 290 1.20347 0.025187 1.72164e-05 1037.87 0.070316 1.71346e-08 0)
9(-5.62299e-14 290 1.20373 0.0252002 1.72291e-05 1037.69 0.068165 1.80546e-08 0)
9(-5.92826e-14 290 1.20399 0.0252135 1.72418e-05 1037.51 0.066014 1.89745e-08 0)
9(-6.23536e-14 290 1.20424 0.0252267 1.72546e-05 1037.32 0.063863 1.98944e-08 0)
9(-6.54429e-14 290 1.2045 0.0252399 1.72673e-05 1037.14 0.0617119 2.08143e-08 0)
9(-6.85504e-14 290 1.20476 0.0252532 1.72801e-05 1036.96 0.0595609 2.17342e-08 0)
9(-7.16763e-14 290 1.20502 0.0252665 1.72929e-05 1036.78 0.0574099 2.26541e-08 0)
9(-7.48205e-14 290 1.20528 0.0252798 1.73056e-05 1036.59 0.0552589 2.3574e-08 0)
9(-7.79831e-14 290 1.20554 0.0252931 1.73185e-05 1036.41 0.0531079 2.44939e-08 0)
9(-8.1164e-14 290 1.2058 0.0253064 1.73313e-05 1036.23 0.0509569 2.54138e-08 0)
9(-8.43633e-14 290 1.20606 0.0253197 1.73441e-05 1036.04 0.0488059 2.63338e-08 0)
9(-8.7581e-14 290 1.20632 0.0253331 1.73569e-05 1035.86 0.0466549 2.72537e-08 0)
9(-9.0817e-14 290 1.20658 0.0253465 1.73698e-05 1035.68 0.0445038 2.81736e-08 0)
9(-9.40715e-14 290 1.20684 0.0253598 1.73826e-05 1035.5 0.0423528 2.90935e-08 0)
9(-9.73443e-14 290 1.2071 0.0253732 1.73955e-05 1035.31 0.0402018 3.00134e-08 0)
9(-1.00636e-13 290 1.20736 0.0253867 1.74084e-05 1035.13 0.0380508 3.09333e-08 0)
9(-1.03945e-13 290 1.20762 0.0254001 1.74213e-05 1034.95 0.0358998 3.18532e-08 0)
9(-1.07273e-13 290 1.20788 0.0254135 1.74342e-05 1034.77 0.0337488 3.27731e-08 0)
9(4.58798e-20 290.013 1.20807 0.0254288 1.74478e-05 1034.6 0.0315978 1.05717e-05 0.005)
9(1.6907e-13 290.011 1.20834 0.0254423 1.74606e-05 1034.41 0.0294468 8.21758e-05 0)
9(-1.49669e-13 290.004 1.20863 0.0254549 1.74732e-05 1034.23 0.0272958 3.42136e-05 0)
9(2.36691e-13 290 1.20892 0.0254678 1.7486e-05 1034.04 0.0251447 6.75739e-06 0)
9(2.03169e-18 290.001 1.20917 0.0254817 1.74991e-05 1033.86 0.0229937 1.82363e-06 0.003125)
9(4.32025e-23 290.002 1.20943 0.0254953 1.75121e-05 1033.68 0.0208427 3.53748e-06 0.0046875)
9(7.63683e-22 290.004 1.20968 0.0255094 1.75252e-05 1033.5 0.0186917 8.19203e-06 0.00625)
9(1.06957e-20 290.008 1.20991 0.025524 1.75384e-05 1033.32 0.0165407 1.69699e-05 0.0078125)
9(6.80893e-22 290.003 1.2102 0.0255366 1.75512e-05 1033.13 0.0143897 5.26581e-06 0.0078125)
9(9.56901e-20 290.014 1.21038 0.0255534 1.75647e-05 1032.98 0.0122387 4.17609e-05 0.0242188)
9(1.15833e-20 290.006 1.2107 0.0255651 1.75774e-05 1032.78 0.0100877 1.2716e-05 0.279996)
9(2.31698e-06 354.876 0.985839 0.0299366 2.0448e-05 1055.35 0.00901015 4.55804 0.170956)
9(0.0001109 439.266 0.793576 0.0355985 2.38298e-05 1084.49 0.00900992 14.5007 0.0571133)
9(0.00115125 509.329 0.682359 0.0403042 2.64212e-05 1109.33 0.00900961 27.4373 0.0575188)
9(0.00654099 572.307 0.605566 0.0445231 2.86234e-05 1132 0.00900921 38.4877 0.0868958)
9(0.0231144 624.839 0.553442 0.0480259 3.039e-05 1150.79 0.00900869 49.5696 -72861.8)
9(-7.11997e-15 290 1.19935 0.0249778 1.70146e-05 1040.8 0.104732 2.41605e-09 0)
9(-9.86365e-15 290 1.1996 0.0249908 1.70272e-05 1040.61 0.102581 3.33596e-09 0)
9(-1.26254e-14 290 1.19986 0.0250038 1.70397e-05 1040.43 0.10043 4.25587e-09 0)
9(-1.54053e-14 290 1.20012 0.0250167 1.70522e-05 1040.25 0.0982791 5.17578e-09 0)
9(-1.82033e-14 290 1.20037 0.0250298 1.70648e-05 1040.06 0.0961281 6.0957e-09 0)
9(-2.10194e-14 290 1.20063 0.0250428 1.70774e-05 1039.88 0.0939771 7.01561e-09 0)
9(-2.38536e-14 290 1.20089 0.0250558 1.70899e-05 1039.7 0.0918261 7.93552e-09 0)
9(-2.67059e-14 290 1.20115 0.0250689 1.71025e-05 1039.52 0.0896751 8.85543e-09 0)
9(-2.95765e-14 290 1.2014 0.025082 1.71151e-05 1039.33 0.0875241 9.77534e-09 0)
9(-3.24651e-14 290 1.20166 0.025095 1.71277e-05 1039.15 0.0853731 1.06953e-08 0)
9(-3.5372e-14 290 1.20192 0.0251081 1.71404e-05 1038.97 0.0832221 1.16152e-08 0)
9(-3.8297e-14 290 1.20218 0.0251212 1.7153e-05 1038.79 0.081071 1.25351e-08 0)
9(-4.12403e-14 290 1.20243 0.0251344 1.71657e-05 1038.6 0.07892 1.3455e-08 0)
9(-4.42017e-14 290 1.20269 0.0251475 1.71783e-05 1038.42 0.076769 1.43749e-08 0)
9(-4.71814e-14 290 1.20295 0.0251607 1.7191e-05 1038.24 0.074618 1.52948e-08 0)
9(-5.01793e-14 290 1.20321 0.0251738 1.72037e-05 1038.05 0.072467 1.62147e-08 0)
9(-5.31955e-14 290 1.20347 0.025187 1.72164e-05 1037.87 0.070316 1.71346e-08 0)
9(-5.62299e-14 290 1.20373 0.0252002 1.72291e-05 1037.69 0.068165 1.80546e-08 0)
9(-5.92826e-14 290 1.20399 0.0252135 1.72418e-05 1037.51 0.066014 1.89745e-08 0)
9(-6.23536e-14 290 1.20424 0.0252267 1.72546e-05 1037.32 0.063863 1.98944e-08 0)
9(-6.54429e-14 290 1.2045 0.0252399 1.72673e-05 1037.14 0.0617119 2.08143e-08 0)
9(-6.85504e-14 290 1.20476 0.0252532 1.72801e-05 1036.96 0.0595609 2.17342e-08 0)
9(-7.16763e-14 290 1.20502 0.0252665 1.72929e-05 1036.78 0.0574099 2.26541e-08 0)
9(-7.48205e-14 290 1.20528 0.0252798 1.73056e-05 1036.59 0.0552589 2.3574e-08 0)
9(-7.79831e-14 290 1.20554 0.0252931 1.73185e-05 1036.41 0.0531079 2.44939e-08 0)
9(-8.1164e-14 290 1.2058 0.0253064 1.73313e-05 1036.23 0.0509569 2.54138e-08 0)
9(-8.43633e-14 290 1.20606 0.0253197 1.73441e-05 1036.04 0.0488059 2.63338e-08 0)
9(-8.7581e-14 290 1.20632 0.0253331 1.73569e-05 1035.86 0.0466549 2.72537e-08 0)
9(-9.0817e-14 290 1.20658 0.0253465 1.73698e-05 1035.68 0.0445038 2.81736e-08 0)
9(-9.40715e-14 290 1.20684 0.0253598 1.73826e-05 1035.5 0.0423528 2.90935e-08 0)
9(-9.73443e-14 290 1.2071 0.0253732 1.73955e-05 1035.31 0.0402018 3.00134e-08 0)
9(-1.00636e-13 290 1.20736 0.0253867 1.74084e-05 1035.13 0.0380508 3.09333e-08 0)
9(-1.03945e-13 290 1.20762 0.0254001 1.74213e-05 1034.95 0.0358998 3.18532e-08 0)
9(-1.07273e-13 290 1.20788 0.0254135 1.74342e-05 1034.77 0.0337488 3.27731e-08 0)
9(4.58798e-20 290.013 1.20807 0.0254288 1.74478e-05 1034.6 0.0315978 1.05717e-05 0.005)
9(1.6907e-13 290.011 1.20834 0.0254423 1.74606e-05 1034.41 0.0294468 8.21758e-05 0)
9(-1.49669e-13 290.004 1.20863 0.0254549 1.74732e-05 1034.23 0.0272958 3.42136e-05 0)
9(2.36691e-13 290 1.20892 0.0254678 1.7486e-05 1034.04 0.0251447 6.75739e-06 0)
9(2.03169e-18 290.001 1.20917 0.0254817 1.74991e-05 1033.86 0.0229937 1.82363e-06 0.003125)
9(4.32025e-23 290.002 1.20943 0.0254953 1.75121e-05 1033.68 0.0208427 3.53748e-06 0.0046875)
9(7.63683e-22 290.004 1.20968 0.0255094 1.75252e-05 1033.5 0.0186917 8.19203e-06 0.00625)
9(1.06957e-20 290.008 1.20991 0.025524 1.75384e-05 1033.32 0.0165407 1.69699e-05 0.0078125)
9(6.80893e-22 290.003 1.2102 0.0255366 1.75512e-05 1033.13 0.0143897 5.26581e-06 0.0078125)
9(9.56901e-20 290.014 1.21038 0.0255534 1.75647e-05 1032.98 0.0122387 4.17609e-05 0.0242188)
9(1.77653e-06 358.072 0.976791 0.030131 2.05702e-05 1056.44 0.0112629 4.13609 0.283743)
9(7.96271e-05 439.535 0.793068 0.0355946 2.38307e-05 1084.39 0.0112627 14.909 0.171186)
9(0.000762298 507.909 0.68435 0.040186 2.63634e-05 1108.49 0.0112624 25.7364 0.0572161)
9(0.00456736 569.799 0.608373 0.0443313 2.85329e-05 1130.66 0.011262 36.8555 0.0575848)
9(0.0195309 627.65 0.550835 0.0481913 3.04748e-05 1151.47 0.0112615 50.3291 0.0869444)
9(0.0593958 677.566 0.509154 0.0515059 3.20987e-05 1169.17 0.0112609 61.2528 736.057)
9(-7.11997e-15 290 1.19935 0.0249778 1.70146e-05 1040.8 0.104732 2.41605e-09 0)
9(-9.86365e-15 290 1.1996 0.0249908 1.70272e-05 1040.61 0.102581 3.33596e-09 0)
9(-1.26254e-14 290 1.19986 0.0250038 1.70397e-05 1040.43 0.10043 4.25587e-09 0)
9(-1.54053e-14 290 1.20012 0.0250167 1.70522e-05 1040.25 0.0982791 5.17578e-09 0)
9(-1.82033e-14 290 1.20037 0.0250298 1.70648e-05 1040.06 0.0961281 6.0957e-09 0)
9(-2.10194e-14 290 1.20063 0.0250428 1.70774e-05 1039.88 0.0939771 7.01561e-09 0)
9(-2.38536e-14 290 1.20089 0.0250558 1.70899e-05 1039.7 0.0918261 7.93552e-09 0)
9(-2.67059e-14 290 1.20115 0.0250689 1.71025e-05 1039.52 0.0896751 8.85543e-09 0)
9(-2.95765e-14 290 1.2014 0.025082 1.71151e-05 1039.33 0.0875241 9.77534e-09 0)
9(-3.24651e-14 290 1.20166 0.025095 1.71277e-05 1039.15 0.0853731 1.06953e-08 0)
9(-3.5372e-14 290 1.20192 0.0251081 1.71404e-05 1038.97 0.0832221 1.16152e-08 0)
9(-3.8297e-14 290 1.20218 0.0251212 1.7153e-05 1038.79 0.081071 1.25351e-08 0)
9(-4.12403e-14 290 1.20243 0.0251344 1.71657e-05 1038.6 0.07892 1.3455e-08 0)
9(-4.42017e-14 290 1.20269 0.0251475 1.71783e-05 1038.42 0.076769 1.43749e-08 0)
9(-4.71814e-14 290 1.20295 0.0251607 1.7191e-05 1038.24 0.074618 1.52948e-08 0)
9(-5.01793e-14 290 1.20321 0.0251738 1.72037e-05 1038.05 0.072467 1.62147e-08 0)
9(-5.31955e-14 290 1.20347 0.025187 1.72164e-05 1037.87 0.070316 1.71346e-08 0)
9(-5.62299e-14 290 1.20373 0.0252002 1.72291e-05 1037.69 0.068165 1.80546e-08 0)
9(-5.92826e-14 290 1.20399 0.0252135 1.72418e-05 1037.51 0.066014 1.89745e-08 0)
9(-6.23536e-14 290 1.20424 0.0252267 1.72546e-05 1037.32 0.063863 1.98944e-08 0)
9(-6.54429e-14 290 1.2045 0.0252399 1.72673e-05 1037.14 0.0617119 2.08143e-08 0)
9(-6.85504e-14 290 1.20476 0.0252532 1.72801e-05 1036.96 0.0595609 2.17342e-08 0)
9(-7.16763e-14 290 1.20502 0.0252665 1.72929e-05 1036.78 0.0574099 2.26541e-08 0)
9(-7.48205e-14 290 1.20528 0.0252798 1.73056e-05 1036.59 0.0552589 2.3574e-08 0)
9(-7.79831e-14 290 1.20554 0.0252931 1.73185e-05 1036.41 0.0531079 2.44939e-08 0)
9(-8.1164e-14 290 1.2058 0.0253064 1.73313e-05 1036.23 0.0509569 2.54138e-08 0)
9(-8.43633e-14 290 1.20606 0.0253197 1.73441e-05 1036.04 0.0488059 2.63338e-08 0)
9(-8.7581e-14 290 1.20632 0.0253331 1.73569e-05 1035.86 0.0466549 2.72537e-08 0)
9(-9.0817e-14 290 1.20658 0.0253465 1.73698e-05 1035.68 0.0445038 2.81736e-08 0)
9(-9.40715e-14 290 1.20684 0.0253598 1.73826e-05 1035.5 0.0423528 2.90935e-08 0)
9(-9.73443e-14 290 1.2071 0.0253732 1.73955e-05 1035.31 0.0402018 3.00134e-08 0)
9(-1.00636e-13 290 1.20736 0.0253867 1.74084e-05 1035.13 0.0380508 3.09333e-08 0)
9(-1.03945e-13 290 1.20762 0.0254001 1.74213e-05 1034.95 0.0358998 3.18532e-08 0)
9(-1.07273e-13 290 1.20788 0.0254135 1.74342e-05 1034.77 0.0337488 3.27731e-08 0)
9(4.58798e-20 290.013 1.20807 0.0254288 1.74478e-05 1034.6 0.0315978 1.05717e-05 0.005)
9(1.6907e-13 290.011 1.20834 0.0254423 1.74606e-05 1034.41 0.0294468 8.21758e-05 0)
9(-1.49669e-13 290.004 1.20863 0.0254549 1.74732e-05 1034.23 0.0272958 3.42136e-05 0)
9(2.36691e-13 290 1.20892 0.0254678 1.7486e-05 1034.04 0.0251447 6.75739e-06 0)
9(2.03169e-18 290.001 1.20917 0.0254817 1.74991e-05 1033.86 0.0229937 1.82363e-06 0.003125)
9(4.32025e-23 290.002 1.20943 0.0254953 1.75121e-05 1033.68 0.0208427 3.53748e-06 0.0046875)
9(7.63683e-22 290.004 1.20968 0.0255094 1.75252e-05 1033.5 0.0186917 8.19203e-06 0.00625)
9(1.06957e-20 290.008 1.20991 0.025524 1.75384e-05 1033.32 0.0165407 1.69699e-05 0.0078125)
9(6.80893e-22 290.003 1.2102 0.0255366 1.75512e-05 1033.13 0.0143897 5.26581e-06 0.0078125)
9(1.37289e-06 360.618 0.969701 0.0302802 2.06649e-05 1057.27 0.0135157 4.44483 0.0275622)
9(5.3875e-05 439.945 0.792276 0.0356039 2.3837e-05 1084.36 0.0135155 13.1392 0.284003)
9(0.00051623 506.139 0.686827 0.0400455 2.62932e-05 1107.51 0.0135152 23.5947 0.171295)
9(0.00302321 567.107 0.611404 0.0441286 2.84359e-05 1129.27 0.0135149 34.5088 0.0572868)
9(0.0135943 624.161 0.554096 0.0479355 3.03569e-05 1149.72 0.0135144 46.4191 0.0576366)