/*---------------------------------------------------------------------------*\
| =========                 |                                                 |
| \\      /  F ield         | OpenFOAM: The Open Source CFD Toolbox           |
|  \\    /   O peration     | Version:  1.3                                   |
|   \\  /    A nd           | Web:      http://www.openfoam.org               |
|    \\/     M anipulation  |                                                 |
\*---------------------------------------------------------------------------*/

FoamFile
{
    version         2.0;
    format          ascii;

    root            "";
    case            "";
    instance        "";
    local           "";

    class           dictionary;
    object          blockMeshDict;
}

// * * * * * * * * * * * * * * * * * * * * * * * * * * * * * * * * * * * * * //

convertToMeters 2e-1;

vertices        
(
 (-0.5 -0.5 -0.5)
 (0.5 -0.5 -0.5)
 (0.5 0.5 -0.5)
 (-0.5 0.5 -0.5)  
 (-0.5 -0.5 0.5)
 (0.5 -0.5 0.5)
 (0.5 0.5 0.5)
 (-0.5 0.5 0.5)  
);

blocks          
(
    hex (0 1 2 3 4 5 6 7) (31 31 31) simpleGrading (1 1 1)
);

edges           
(
);

patches         
(
    cyclic c1
    (
        (0 4 7 3)
        (1 2 6 5)
    )
    cyclic c2
    (
        (0 1 5 4)
        (3 7 6 2)
    )
    cyclic c3
    (
        (7 4 5 6)
        (0 3 2 1)
    )
);

mergePatchPairs
(
);

// ************************************************************************* //
