FoamFile
{
version         2.0;
format          ascii;
root            "";
case            "";
instance        "";
local           "";
class           dictionary;
object          blockMeshDict;
}
convertToMeters 0.001;
vertices
(
 (0
-145.5
5.96851e-08
)
 (0
-34
1.3947e-08
)
 (0
-7.5
3.07655e-09
)
 (0
-6
2.46124e-09
)
 (0
-3
1.23062e-09
)
 (0
-2.98425e-08
-145.5
)
 (0
-6.97352e-09
-34
)
 (0
-1.53828e-09
-7.5
)
 (0
-1.23062e-09
-6
)
 (0
-6.1531e-10
-3
)
 (0
1.84593e-09
3
)
 (0
3.69186e-09
6
)
 (0
4.61483e-09
7.5
)
 (0
2.09205e-08
34
)
 (0
8.95276e-08
145.5
)
 (0
3
0
)
 (0
6
0
)
 (0
7.5
0
)
 (0
34
0
)
 (0
145.5
0
)
 (400
-145.5
5.96851e-08
)
 (400
-34
1.3947e-08
)
 (400
-7.5
3.07655e-09
)
 (400
-6
2.46124e-09
)
 (400
-3
1.23062e-09
)
 (400
-2.98425e-08
-145.5
)
 (400
-6.97352e-09
-34
)
 (400
-1.53828e-09
-7.5
)
 (400
-1.23062e-09
-6
)
 (400
-6.1531e-10
-3
)
 (400
1.84593e-09
3
)
 (400
3.69186e-09
6
)
 (400
4.61483e-09
7.5
)
 (400
2.09205e-08
34
)
 (400
8.95276e-08
145.5
)
 (400
3
0
)
 (400
6
0
)
 (400
7.5
0
)
 (400
34
0
)
 (400
145.5
0
)
);
blocks
(
  hex (15 35 30 10 9 29 24 4) (180 15 15) simpleGrading (10 1 1)
  hex (15 35 29 9 16 36 28 8) (180 15 8) simpleGrading (10 1 1)
  hex (16 36 28 8 17 37 27 7) (180 15 2) simpleGrading (10 1 1)
  hex (17 37 27 7 18 38 26 6) (180 15 25) simpleGrading (10 1 1)
  hex (18 38 26 6 19 39 25 5) (180 15 25) simpleGrading (10 1 8)
  hex (9 29 24 4 8 28 23 3) (180 15 8) simpleGrading (10 1 1)
  hex (8 28 23 3 7 27 22 2) (180 15 2) simpleGrading (10 1 1)
  hex (7 27 22 2 6 26 21 1) (180 15 25) simpleGrading (10 1 1)
  hex (6 26 21 1 5 25 20 0) (180 15 25) simpleGrading (10 1 8)
  hex (4 24 30 10 3 23 31 11) (180 15 8) simpleGrading (10 1 1)
  hex (3 23 31 11 2 22 32 12) (180 15 2) simpleGrading (10 1 1)
  hex (2 22 32 12 1 21 33 13) (180 15 25) simpleGrading (10 1 1)
  hex (1 21 33 13 0 20 34 14) (180 15 25) simpleGrading (10 1 8)
  hex (10 30 35 15 11 31 36 16) (180 15 8) simpleGrading (10 1 1)
  hex (11 31 36 16 12 32 37 17) (180 15 2) simpleGrading (10 1 1)
  hex (12 32 37 17 13 33 38 18) (180 15 25) simpleGrading (10 1 1)
  hex (13 33 38 18 14 34 39 19) (180 15 25) simpleGrading (10 1 8)
);
edges
(
  arc 16 8 (0
4.24264
-4.24264
)
  arc 36 28 (400
4.24264
-4.24264
)
  arc 17 7 (0
5.3033
-5.3033
)
  arc 37 27 (400
5.3033
-5.3033
)
  arc 18 6 (0
24.0416
-24.0416
)
  arc 38 26 (400
24.0416
-24.0416
)
  arc 19 5 (0
102.884
-102.884
)
  arc 39 25 (400
102.884
-102.884
)
  arc 8 3 (0
-4.24264
-4.24264
)
  arc 28 23 (400
-4.24264
-4.24264
)
  arc 7 2 (0
-5.3033
-5.3033
)
  arc 27 22 (400
-5.3033
-5.3033
)
  arc 6 1 (0
-24.0416
-24.0416
)
  arc 26 21 (400
-24.0416
-24.0416
)
  arc 5 0 (0
-102.884
-102.884
)
  arc 25 20 (400
-102.884
-102.884
)
  arc 3 11 (0
-4.24264
4.24264
)
  arc 23 31 (400
-4.24264
4.24264
)
  arc 2 12 (0
-5.3033
5.3033
)
  arc 22 32 (400
-5.3033
5.3033
)
  arc 1 13 (0
-24.0416
24.0416
)
  arc 21 33 (400
-24.0416
24.0416
)
  arc 0 14 (0
-102.884
102.884
)
  arc 20 34 (400
-102.884
102.884
)
  arc 11 16 (0
4.24264
4.24264
)
  arc 31 36 (400
4.24264
4.24264
)
  arc 12 17 (0
5.3033
5.3033
)
  arc 32 37 (400
5.3033
5.3033
)
  arc 13 18 (0
24.0416
24.0416
)
  arc 33 38 (400
24.0416
24.0416
)
  arc 14 19 (0
102.884
102.884
)
  arc 34 39 (400
102.884
102.884
)
);
patches
(
patch axial_outlet
(
( 35 29 24 30 )
( 35 29 28 36 )
( 36 28 27 37 )
( 37 27 26 38 )
( 38 26 25 39 )
( 29 24 23 28 )
( 28 23 22 27 )
( 27 22 21 26 )
( 26 21 20 25 )
( 24 30 31 23 )
( 23 31 32 22 )
( 22 32 33 21 )
( 21 33 34 20 )
( 30 35 36 31 )
( 31 36 37 32 )
( 32 37 38 33 )
( 33 38 39 34 )
)
patch coflow
(
( 17 7 6 18 )
( 7 2 1 6 )
( 2 12 13 1 )
( 12 17 18 13 )
)
patch coflow_air
(
( 18 6 5 19 )
( 6 1 0 5 )
( 1 13 14 0 )
( 13 18 19 14 )
)
patch inlet
(
( 15 10 4 9 )
( 15 9 8 16 )
( 9 4 3 8 )
( 4 10 11 3 )
( 10 15 16 11 )
)
patch tangential_outlet
(
( 19 5 25 39 )
( 5 0 20 25 )
( 0 14 34 20 )
( 14 19 39 34 )
)
patch walls
(
( 16 8 7 17 )
( 8 3 2 7 )
( 3 11 12 2 )
( 11 16 17 12 )
)
);
