/*--------------------------------*- C++ -*----------------------------------*\
| =========                 |                                                 |
| \\      /  F ield         | OpenFOAM: The Open Source CFD Toolbox           |
|  \\    /   O peration     | Version:  1.4.1-dev                             |
|   \\  /    A nd           | Web:      http://www.openfoam.org               |
|    \\/     M anipulation  |                                                 |
\*---------------------------------------------------------------------------*/

FoamFile
{
    version 2.0;
    format ascii;

    root "/home/Chris/OpenFOAM/Chris-1.4.1-dev/run/ChenF2";
    case "ChenF2_bXi";
    instance "constant";
    local "polyMesh";

    class polyBoundaryMesh;
    object boundary;
}

// * * * * * * * * * * * * * * * * * * * * * * * * * * * * * * * * * * * * * //

6
(
axial_outlet
{
    type patch;
    nFaces 3825;
    startFace 2056275;
}

coflow
{
    type patch;
    nFaces 1500;
    startFace 2060100;
}

coflow_air
{
    type patch;
    nFaces 1500;
    startFace 2061600;
}

inlet
{
    type patch;
    nFaces 705;
    startFace 2063100;
}

tangential_outlet
{
    type patch;
    nFaces 10800;
    startFace 2063805;
}

walls
{
    type patch;
    nFaces 120;
    startFace 2074605;
}
)

// ************************************************************************* //
