/*---------------------------------------------------------------------------*\
| =========                 |                                                 |
| \\      /  F ield         | OpenFOAM: The Open Source CFD Toolbox           |
|  \\    /   O peration     | Version:  1.4                                   |
|   \\  /    A nd           | Web:      http://www.openfoam.org               |
|    \\/     M anipulation  |                                                 |
\*---------------------------------------------------------------------------*/

FoamFile
{
    version         2.0;
    format          ascii;

    root            "";
    case            "";
    instance        "";
    local           "";

    class           dictionary;
    object          fvSchemes;
}

// * * * * * * * * * * * * * * * * * * * * * * * * * * * * * * * * * * * * * //

ddtSchemes
{
    default Euler;
}

gradSchemes
{
    default         Gauss linear;
    grad(p)         Gauss linear;
}

divSchemes
{
    default         none;
    div(phi,U)      Gauss GammaV 1;
    div(phid,p)     Gauss linear;
    div(phiU,p)     Gauss linear;
    div(phi,k)      Gauss Gamma 1;
    div(phi,B)      Gauss Gamma 1;
    div(B)          Gauss linear;
    div(phi,b_ft_h) Gauss multivariateSelection 
    {
        b               Gamma01 1;
        ft              Gamma01 1;
        h               Gamma 1;
    };
    div(U)          Gauss linear;
    div((muEff*dev2(grad(U).T()))) Gauss linear;
}

laplacianSchemes
{
    default         Gauss linear corrected;
    laplacian(muEff,U) Gauss linear corrected;
    laplacian(DkEff,k) Gauss linear corrected;
    laplacian(DBEff,B) Gauss linear corrected;
    laplacian((rho*(1|A(U))),p) Gauss linear corrected;
    laplacian(muEff,b) Gauss linear corrected;
    laplacian(alphaEff,h) Gauss linear corrected;
}

interpolationSchemes
{
    default         linear;
}

snGradSchemes
{
    default         corrected;
}

fluxRequired
{
    default         no;
    p;
}


// ************************************************************************* //
